26
cls=0 
     H      7.57370000      8.36110000      3.61400000       nan
     H     10.45710000      9.53260000      6.59250000       nan
     H      6.32010000      6.16560000     10.18160000       nan
     H      7.38400000      4.96690000      8.59120000       nan
     H      5.99840000      3.85240000      8.56080000       nan
     H      8.20650000      4.75320000      6.29350000       nan
     H      5.15930000      7.12970000      7.59260000       nan
     H      7.52760000      6.07290000      4.54680000       nan
     H     10.43040000      7.20890000      7.50810000       nan
     H      8.97600000     10.14760000      4.63070000       nan
     H      4.01860000      6.61350000     10.38600000       nan
     H      4.76820000      6.61550000      5.98630000       nan
     C      9.00610000      9.12790000      5.04220000 -268.8256
     C      4.36130000      5.85290000      9.66900000 -271.9124
     C      8.19300000      8.12960000      4.48200000 -268.9718
     C      9.80710000      8.77850000      6.13840000 -269.0045
     C      8.95900000      6.50630000      6.10560000 -270.5035
     C      6.29240000      4.91140000      8.48520000 -270.6979
     C      5.94120000      5.30310000      7.04660000 -272.2440
     C      8.16490000      6.83630000      4.99640000 -268.8035
     C      9.79370000      7.48400000      6.66480000 -268.8291
     N      5.69070000      5.70740000      9.52930000 -382.2912
     N      5.27700000      6.46090000      6.83320000 -381.6804
     O      3.54290000      5.22530000      8.97630000 -510.6320
     O      8.95630000      5.26270000      6.66540000 -511.6143
     O      6.26160000      4.52860000      6.13450000 -510.6811
