26
cls=0 
     H      4.44200000     11.41840000      5.82965000       nan
     H      3.74470000      8.64010000      5.90625000       nan
     H      6.00470000      8.57250000      4.79105000       nan
     H      6.72820000      9.22400000      6.27815000       nan
     H      4.51270000      6.43950000      5.02375000       nan
     H      7.39610000      7.61100000      8.00225000       nan
     H      4.46660000      4.15130000      5.95655000       nan
     H      7.36940000      5.28730000      8.91785000       nan
     H      3.65400000      7.85710000      8.03125000       nan
     H      3.62010000     11.40320000      3.59625000       nan
     H      5.89580000      3.58160000      7.96685000       nan
     H      4.00820000      8.79900000      9.43295000       nan
     C      3.85350000     10.45620000      4.10475000 -271.4142
     C      4.55540000      9.33670000      6.15905000 -270.5484
     C      4.42600000      9.72010000      7.62985000 -271.8915
     C      5.90380000      8.60650000      5.88695000 -269.3683
     C      5.94510000      7.20630000      6.45195000 -269.4427
     C      5.13200000      6.20800000      5.89175000 -269.0756
     C      6.74610000      6.85690000      7.54815000 -269.1327
     C      5.10390000      4.91470000      6.40615000 -269.1602
     C      6.73270000      5.56240000      8.07455000 -269.1397
     C      5.89800000      4.58470000      7.51535000 -269.1469
     N      4.40440000     10.52710000      5.34405000 -381.4916
     N      4.03680000      8.71350000      8.43705000 -381.5238
     O      3.60390000      9.36910000      3.56705000 -510.1607
     O      4.69170000     10.86370000      8.03565000 -510.4165
