48
cls=0 
     H      6.65250000      8.91745000      4.80935000       nan
     H      8.91250000      8.84985000      3.69415000       nan
     H      9.63600000      9.50135000      5.18125000       nan
     H      7.42050000      6.71685000      3.92685000       nan
     H     10.30390000      7.88835000      6.90535000       nan
     H      7.37440000      4.42865000      4.85965000       nan
     H     10.27720000      5.56465000      7.82095000       nan
     H      6.56180000      8.13445000      6.93435000       nan
     H      7.57970000      9.93325000      9.05425000       nan
     H      5.06770000     10.29545000      8.81425000       nan
     H      4.81160000      8.57185000      9.13445000       nan
     H      8.91160000      5.58555000      9.73055000       nan
     H     10.67700000      5.96535000     11.83105000       nan
     H     11.10530000      6.39455000     10.15815000       nan
     H      9.96930000      8.28355000     12.30585000       nan
     H     11.44020000      8.54105000     11.33545000       nan
     H     10.12900000      8.97545000      9.31695000       nan
     H      9.03160000      9.64205000     10.56805000       nan
     H      3.55980000      5.98235000      3.76825000       nan
     H      7.34870000     10.51675000      4.44415000       nan
     H      8.80360000      3.85895000      6.86995000       nan
     H      5.52610000      9.60615000     10.40565000       nan
     H      8.28780000      6.02985000     11.29665000       nan
     H      4.40680000      5.45105000      5.79975000       nan
     H      4.08040000      7.57525000      3.74185000       nan
     C      7.46320000      9.61405000      5.06215000 -268.7473
     C      7.33380000      9.99745000      6.53295000 -270.6889
     C      8.81160000      8.88385000      4.79005000 -269.0117
     C      8.85290000      7.48365000      5.35505000 -269.1213
     C      8.03980000      6.48535000      4.79485000 -268.8536
     C      9.65390000      7.13425000      6.45125000 -268.8454
     C      8.01170000      5.19205000      5.30925000 -268.9087
     C      9.64050000      5.83975000      6.97765000 -268.8705
     C      8.80580000      4.86205000      6.41845000 -268.8613
     C      6.90310000      9.11495000      8.78645000 -269.6296
     C      7.36770000      7.76755000      9.34875000 -270.8480
     C      5.49420000      9.41975000      9.32205000 -268.1424
     C      8.96760000      6.36585000     10.49975000 -269.5918
     C     10.40900000      6.61265000     10.98445000 -269.0930
     C     10.42800000      8.11255000     11.31835000 -269.1736
     C      9.54870000      8.73645000     10.22475000 -269.9575
     C      4.45770000      6.50575000      5.49155000 -271.9752
     N      6.94460000      8.99085000      7.34015000 -380.4368
     N      8.57730000      7.66595000      9.93705000 -381.2243
     N      3.85460000      6.78885000      4.31685000 -381.8281
     O      7.59950000     11.14105000      6.93875000 -509.2645
     O      6.61850000      6.78155000      9.27075000 -509.4474
     O      5.02180000      7.37055000      6.17835000 -510.6278
