22
cls=0 
     H      3.71965000      8.91745000      4.79425000       nan
     H      5.97965000      8.84985000      3.67905000       nan
     H      6.70315000      9.50135000      5.16615000       nan
     H      4.48765000      6.71685000      3.91175000       nan
     H      7.37105000      7.88835000      6.89025000       nan
     H      4.44155000      4.42865000      4.84455000       nan
     H      7.34435000      5.56465000      7.80585000       nan
     H      3.62895000      8.13445000      6.91925000       nan
     H      4.41585000     10.51675000      4.42905000       nan
     H      5.87075000      3.85895000      6.85485000       nan
     H      3.98315000      9.07635000      8.32095000       nan
     C      4.53035000      9.61405000      5.04705000 -269.2837
     C      4.40095000      9.99745000      6.51785000 -271.4500
     C      5.87875000      8.88385000      4.77495000 -269.3957
     C      5.92005000      7.48365000      5.33995000 -269.4663
     C      5.10695000      6.48535000      4.77975000 -269.1746
     C      6.72105000      7.13425000      6.43615000 -269.1585
     C      5.07885000      5.19205000      5.29415000 -269.2227
     C      6.70765000      5.83975000      6.96255000 -269.1831
     C      5.87295000      4.86205000      6.40335000 -269.1824
     N      4.01175000      8.99085000      7.32505000 -381.1856
     O      4.66665000     11.14105000      6.92365000 -509.8866
