30
cls=0 
     H      3.72490000      5.87955000      4.53865000       nan
     H      5.33570000      3.99195000      4.04965000       nan
     H      8.14530000      8.58095000      4.57275000       nan
     H      8.13990000      3.59275000      3.80655000       nan
     H     10.27510000      7.34125000      4.17975000       nan
     H     10.27310000      4.88715000      3.81455000       nan
     H      5.31780000      9.89095000      8.82555000       nan
     H      4.75110000      6.89375000      6.78335000       nan
     H      6.46200000      9.03935000      6.55605000       nan
     H      3.95890000      8.59655000      4.86205000       nan
     H      5.50880000      9.31375000      4.40545000       nan
     H      4.48920000     11.40725000      8.54705000       nan
     H      5.59810000      6.36245000      8.81485000       nan
     C      4.80420000      6.01285000      4.49075000 -270.0876
     C      6.93000000      6.78305000      4.42235000 -269.1250
     C      6.94810000      5.37745000      4.19425000 -270.0512
     C      8.14200000      7.50235000      4.40595000 -269.0872
     C      8.14020000      4.67235000      3.97465000 -269.1955
     C      9.32470000      6.80265000      4.18555000 -268.9253
     C      9.32490000      5.40465000      3.97805000 -269.0464
     C      5.64900000      7.41715000      8.50665000 -271.6762
     C      5.37850000      8.85845000      6.48515000 -270.5194
     C      4.71350000     10.19425000      6.88545000 -271.4561
     C      5.04700000      8.52305000      5.01135000 -269.3341
     C      5.55050000      7.16775000      4.61645000 -269.2289
     N      5.64050000      4.93505000      4.24505000 -382.1242
     N      4.78680000     10.51345000      8.21145000 -380.6847
     N      5.04590000      7.70025000      7.33195000 -381.6855
     O      6.21310000      8.28195000      9.19345000 -510.5501
     O      4.20780000     10.92705000      6.04335000 -509.9794
