39
cls=0 
     H      8.18960000     11.41840000      5.85355000       nan
     H      7.49230000      8.64010000      5.93015000       nan
     H      9.75230000      8.57250000      4.81495000       nan
     H     10.47580000      9.22400000      6.30205000       nan
     H      8.26030000      6.43950000      5.04765000       nan
     H      4.96630000      8.70220000      6.93125000       nan
     H     11.14370000      7.61100000      8.02615000       nan
     H      8.21420000      4.15130000      5.98045000       nan
     H     11.11700000      5.28730000      8.94175000       nan
     H      7.40160000      7.85710000      8.05515000       nan
     H      4.39960000      5.70500000      4.88905000       nan
     H      6.11050000      7.85060000      4.66175000       nan
     H      7.36770000     11.40320000      3.62015000       nan
     H      4.13770000     10.21850000      6.65275000       nan
     H      9.64340000      3.58160000      7.99075000       nan
     H      7.75580000      8.79900000      9.45685000       nan
     H      5.24660000      5.17370000      6.92055000       nan
     H      4.79130000      7.43130000      3.54315000       nan
     C      7.60110000     10.45620000      4.12865000 -271.3505
     C      8.30300000      9.33670000      6.18295000 -270.3104
     C      8.17360000      9.72010000      7.65375000 -271.4990
     C      9.65140000      8.60650000      5.91085000 -269.2152
     C      9.69270000      7.20630000      6.47585000 -269.3348
     C      8.87960000      6.20800000      5.91565000 -269.0247
     C     10.49370000      6.85690000      7.57205000 -269.0193
     C      8.85150000      4.91470000      6.43005000 -269.1073
     C     10.48030000      5.56240000      8.09845000 -269.0366
     C      9.64560000      4.58470000      7.53925000 -269.0677
     C      5.29750000      6.22840000      6.61235000 -272.2622
     C      5.02700000      7.66970000      4.59085000 -270.3226
     C      4.36200000      9.00550000      4.99115000 -271.4962
     N      8.15200000     10.52710000      5.36795000 -381.3752
     N      4.43530000      9.32470000      6.31715000 -380.7802
     N      7.78440000      8.71350000      8.46095000 -380.8607
     N      4.69440000      6.51150000      5.43765000 -382.3184
     O      7.35150000      9.36910000      3.59095000 -510.1281
     O      8.43930000     10.86370000      8.05955000 -510.0395
     O      5.86160000      7.09320000      7.29915000 -511.1842
     O      3.85630000      9.73830000      4.14905000 -509.9204
