16
cls=0 
     H      5.88225000      3.97175000      4.60510000       nan
     H      7.64765000      4.35155000      6.70560000       nan
     H      8.07595000      4.78075000      5.03270000       nan
     H      6.93995000      6.66975000      7.18040000       nan
     H      8.41085000      6.92725000      6.21000000       nan
     H      7.09965000      7.36165000      4.19150000       nan
     H      6.00225000      8.02825000      5.44260000       nan
     H      4.00475000      7.12115000      3.81960000       nan
     H      5.25845000      4.41605000      6.17120000       nan
     C      4.33835000      6.15375000      4.22330000 -271.1489
     C      5.93825000      4.75205000      5.37430000 -269.9013
     C      7.37965000      4.99885000      5.85900000 -269.3088
     C      7.39865000      6.49875000      6.19290000 -269.4243
     C      6.51935000      7.12265000      5.09930000 -270.2957
     N      5.54795000      6.05215000      4.81160000 -381.5903
     O      3.58915000      5.16775000      4.14530000 -509.8813
