28
cls=0 
     H      7.69165000      6.98990000      5.93015000       nan
     H      5.16565000      7.05200000      6.93125000       nan
     H      3.54525000      9.42030000      6.04795000       nan
     H      3.67185000      8.86350000      7.76265000       nan
     H      6.86485000     10.08820000      8.21985000       nan
     H      7.60095000      6.20690000      8.05515000       nan
     H      4.59895000      4.05480000      4.88905000       nan
     H      6.30985000      6.20040000      4.66175000       nan
     H      8.38785000      8.58920000      5.56495000       nan
     H      9.45475000      7.17070000      5.99075000       nan
     H      7.95515000      7.14880000      9.45685000       nan
     H      5.44595000      3.52350000      6.92055000       nan
     H      4.99065000      5.78110000      3.54315000       nan
     C      8.50235000      7.68650000      6.18295000 -268.9207
     C      8.37295000      8.06990000      7.65375000 -271.5816
     C      4.20145000      8.97560000      6.80575000 -270.1152
     C      5.43295000      9.85850000      6.97735000 -272.1010
     C      5.49685000      4.57820000      6.61235000 -272.6446
     C      5.22635000      6.01950000      4.59085000 -270.9429
     C      4.56135000      7.35530000      4.99115000 -271.7748
     N      4.63465000      7.67450000      6.31715000 -381.4547
     N      7.98375000      7.06330000      8.46095000 -380.9408
     N      4.89375000      4.86130000      5.43765000 -382.7176
     O      8.63865000      9.21350000      8.05955000 -509.9919
     O      5.92595000      9.78820000      8.23095000 -511.8010
     O      5.97105000     10.47650000      6.08475000 -510.4249
     O      6.06095000      5.44300000      7.29915000 -511.5661
     O      4.05565000      8.08810000      4.14905000 -510.2559
