47
cls=0 
     H     10.74675000      7.16045000      9.70670000       nan
     H     12.51215000      7.54025000     11.80720000       nan
     H     12.94045000      7.96945000     10.13430000       nan
     H     11.80445000      9.85845000     12.28200000       nan
     H     13.27535000     10.11595000     11.31160000       nan
     H     11.96415000     10.55035000      9.29310000       nan
     H     10.86675000     11.21695000     10.54420000       nan
     H      5.05745000      6.32055000     11.78260000       nan
     H      3.72465000      7.12775000      9.90600000       nan
     H      4.79675000      7.99895000      8.31370000       nan
     H      8.00205000      6.09625000     10.47060000       nan
     H      9.06595000      4.89755000      8.88020000       nan
     H      7.68035000      3.78305000      8.84980000       nan
     H      6.84125000      7.06035000      7.88160000       nan
     H      6.70955000      6.02355000      5.10520000       nan
     H      4.15345000      6.54445000      5.21740000       nan
     H      4.41205000      6.00815000      7.96810000       nan
     H      5.39495000      7.55725000      3.74440000       nan
     H      8.86925000     10.30985000      8.92120000       nan
     H     10.12295000      7.60475000     11.27280000       nan
     H      6.39495000      7.41025000     11.40850000       nan
     H      4.15425000      8.54875000     10.92410000       nan
     H      4.67275000      5.01875000      6.01040000       nan
     H      5.91555000      9.15015000      3.71800000       nan
     C      9.20285000      9.34245000      9.32490000 -271.1936
     C     10.80275000      7.94075000     10.47590000 -270.1614
     C     12.24415000      8.18755000     10.96060000 -269.4690
     C     12.26315000      9.68745000     11.29450000 -269.5273
     C     11.38385000     10.31135000     10.20090000 -270.3510
     C      5.56475000      6.84555000     10.95920000 -269.0669
     C      6.04325000      5.78355000      9.95800000 -271.6870
     C      4.54895000      7.77345000     10.25090000 -269.9496
     C      7.97435000      4.84205000      8.77420000 -270.1264
     C      7.62315000      5.23375000      7.33560000 -271.2749
     C      6.22215000      6.61535000      5.89590000 -270.1846
     C      6.29285000      8.08065000      5.46770000 -271.5531
     C      4.74355000      6.11595000      6.04460000 -270.3666
     N     10.41245000      9.24085000      9.91320000 -381.7001
     N      7.37265000      5.63805000      9.81830000 -381.6170
     N      6.95895000      6.39155000      7.12220000 -380.9166
     N      5.68975000      8.36375000      4.29300000 -381.2721
     O      8.45365000      8.35645000      9.24690000 -509.9798
     O      5.22485000      5.15595000      9.26530000 -510.3168
     O      5.17775000      8.39805000      9.12380000 -510.1691
     O      7.94355000      4.45925000      6.42350000 -509.7392
     O      6.85695000      8.94545000      6.15450000 -509.9922
     O      4.16405000      6.62885000      7.24080000 -510.9037
