30
cls=0 
     H      8.65575000      4.41665000      4.73610000       nan
     H     10.42115000      4.79645000      6.83660000       nan
     H     10.84945000      5.22565000      5.16370000       nan
     H      9.71345000      7.11465000      7.31140000       nan
     H     11.18435000      7.37215000      6.34100000       nan
     H      9.87315000      7.80655000      4.32250000       nan
     H      8.77575000      8.47315000      5.57360000       nan
     H      7.20885000      6.65835000      7.04720000       nan
     H      6.62615000      4.63305000      9.08810000       nan
     H      6.48235000      6.76415000     10.04940000       nan
     H      6.04555000      7.52915000      8.51840000       nan
     H      5.18205000      5.35125000      5.94080000       nan
     H      6.77825000      7.56605000      3.95060000       nan
     H      4.77715000      6.75395000      9.48730000       nan
     H      3.81565000      4.33435000      6.17360000       nan
     C      7.11185000      6.59865000      4.35430000 -271.8473
     C      8.71175000      5.19695000      5.50530000 -270.5720
     C      7.76105000      4.72705000      6.61970000 -271.6046
     C     10.15315000      5.44375000      5.99000000 -269.6970
     C     10.17215000      6.94365000      6.32390000 -269.7534
     C      9.29285000      7.56755000      5.23030000 -270.7222
     C      6.18845000      5.37075000      8.40110000 -270.3251
     C      4.93115000      4.64345000      7.88310000 -271.1844
     C      5.82695000      6.67215000      9.16920000 -269.1596
     N      8.32145000      6.49705000      4.94260000 -382.2503
     N      7.17665000      5.69535000      7.37520000 -381.6094
     N      4.57045000      4.84765000      6.58210000 -380.6050
     O      6.36265000      5.61265000      4.27630000 -510.6327
     O      7.56005000      3.52685000      6.80200000 -510.1695
     O      4.27695000      3.96625000      8.66610000 -509.6590
