20
cls=0 
     H      5.88225000      4.41665000      4.72210000       nan
     H      7.64765000      4.79645000      6.82260000       nan
     H      8.07595000      5.22565000      5.14970000       nan
     H      6.93995000      7.11465000      7.29740000       nan
     H      8.41085000      7.37215000      6.32700000       nan
     H      7.09965000      7.80655000      4.30850000       nan
     H      6.00225000      8.47315000      5.55960000       nan
     H      4.43535000      6.65835000      7.03320000       nan
     H      4.00475000      7.56605000      3.93660000       nan
     H      3.72675000      5.47315000      8.06340000       nan
     C      4.33835000      6.59865000      4.34030000 -271.4256
     C      5.93825000      5.19695000      5.49130000 -270.3594
     C      4.98755000      4.72705000      6.60570000 -271.5311
     C      7.37965000      5.44375000      5.97600000 -269.5137
     C      7.39865000      6.94365000      6.30990000 -269.5728
     C      6.51935000      7.56755000      5.21630000 -270.4970
     N      5.54795000      6.49705000      4.92860000 -381.8920
     N      4.40315000      5.69535000      7.36120000 -381.1871
     O      3.58915000      5.61265000      4.26230000 -510.1724
     O      4.78655000      3.52685000      6.78800000 -509.9834
