22
cls=0 
     H      6.56030000      4.88345000      7.02310000       nan
     H      6.41650000      7.01455000      7.98440000       nan
     H      5.97970000      7.77955000      6.45340000       nan
     H      3.62500000      6.88235000      6.68600000       nan
     H      4.03330000      6.29455000      8.31420000       nan
     H      3.85190000     10.22275000      7.51360000       nan
     H      5.11620000      5.60165000      3.87580000       nan
     H      7.14300000      6.90875000      4.98220000       nan
     H      3.74980000      4.58475000      4.10860000       nan
     H      8.37500000      5.31345000      3.75780000       nan
     C      6.12260000      5.62115000      6.33610000 -270.8636
     C      4.86530000      4.89385000      5.81810000 -271.9272
     C      5.76110000      6.92255000      7.10420000 -270.0167
     C      4.28980000      7.03725000      7.55000000 -269.6789
     C      4.01890000      8.41515000      8.09570000 -272.6423
     C      7.69520000      4.97745000      4.55470000 -271.8346
     N      4.50460000      5.09805000      4.51710000 -381.5578
     N      7.11080000      5.94575000      5.31020000 -382.1433
     O      4.21110000      4.21665000      6.60110000 -510.3932
     O      4.00250000      9.35985000      7.08380000 -512.4183
     O      3.84740000      8.73595000      9.24220000 -511.0643
     O      7.49420000      3.77725000      4.73700000 -510.6212
