30
cls=0 
     H      5.23030000      6.15465000     10.35925000       nan
     H      3.89750000      6.96185000      8.48265000       nan
     H      4.96960000      7.83305000      6.89035000       nan
     H      8.17490000      5.93035000      9.04725000       nan
     H      9.23880000      4.73165000      7.45685000       nan
     H      7.85320000      3.61715000      7.42645000       nan
     H      7.01410000      6.89445000      6.45825000       nan
     H      6.88240000      5.85765000      3.68185000       nan
     H      4.32630000      6.37855000      3.79405000       nan
     H      4.58490000      5.84225000      6.54475000       nan
     H      3.76120000      4.12805000      4.64255000       nan
     H      5.24790000      4.03125000      3.64075000       nan
     H      5.35800000      3.97965000      5.42055000       nan
     H      6.56780000      7.24435000      9.98515000       nan
     H      4.32710000      8.38285000      9.50075000       nan
     H      6.44590000      7.50415000      4.16435000       nan
     C      5.73760000      6.67965000      9.53585000 -269.4727
     C      6.21610000      5.61765000      8.53465000 -272.1045
     C      4.72180000      7.60755000      8.82755000 -270.3402
     C      8.14720000      4.67615000      7.35085000 -270.4400
     C      7.79600000      5.06785000      5.91225000 -271.5091
     C      6.39500000      6.44945000      4.47255000 -269.7104
     C      4.91640000      5.95005000      4.62125000 -270.2815
     C      4.81820000      4.42765000      4.57375000 -268.3369
     N      7.54550000      5.47215000      8.39495000 -382.1399
     N      7.13180000      6.22565000      5.69885000 -381.2690
     O      5.39770000      4.99005000      7.84195000 -510.6985
     O      5.35060000      8.23215000      7.70045000 -510.7135
     O      8.11640000      4.29335000      5.00015000 -509.9449
     O      4.33690000      6.46295000      5.81745000 -510.8264
