32
cls=0 
     H      5.55955000      7.21605000      5.16225000       nan
     H      6.57745000      9.01485000      7.28215000       nan
     H      4.06545000      9.37705000      7.04215000       nan
     H      3.80935000      7.65345000      7.36235000       nan
     H      7.90935000      4.66715000      7.95845000       nan
     H      9.67475000      5.04695000     10.05895000       nan
     H     10.10305000      5.47615000      8.38605000       nan
     H      8.96705000      7.36515000     10.53375000       nan
     H     10.43795000      7.62265000      9.56335000       nan
     H      9.12675000      8.05705000      7.54485000       nan
     H      8.02935000      8.72365000      8.79595000       nan
     H      6.46245000      6.90885000     10.26955000       nan
     H      6.42485000      8.80255000      3.70025000       nan
     H      3.56205000      9.03655000      9.45995000       nan
     H      5.75385000      5.72365000     11.29975000       nan
     C      6.33155000      9.07905000      4.76085000 -271.6740
     C      5.90085000      8.19655000      7.01435000 -270.8087
     C      6.36545000      6.84915000      7.57665000 -271.7668
     C      4.49195000      8.50135000      7.54995000 -269.8849
     C      4.53555000      8.75615000      9.03145000 -272.1495
     C      7.96535000      5.44745000      8.72765000 -270.3074
     C      7.01465000      4.97755000      9.84205000 -271.3661
     C      9.40675000      5.69425000      9.21235000 -269.4568
     C      9.42575000      7.19415000      9.54625000 -269.4715
     C      8.54645000      7.81805000      8.45265000 -270.3492
     N      5.94235000      8.07245000      5.56805000 -381.9495
     N      7.57505000      6.74755000      8.16495000 -381.9299
     N      6.43025000      5.94585000     10.59755000 -380.8770
     O      6.59725000     10.22265000      5.16665000 -510.4150
     O      5.61625000      5.86315000      7.49865000 -510.3796
     O      5.55265000      8.65145000      9.71135000 -511.9480
     O      6.81365000      3.77735000     10.02435000 -509.8201
