24
cls=0 
     H      6.57745000      7.99275000      5.05585000       nan
     H      4.06545000      8.35495000      4.81585000       nan
     H      3.80935000      6.63135000      5.13605000       nan
     H      7.90935000      3.64505000      5.73215000       nan
     H      9.67475000      4.02485000      7.83265000       nan
     H     10.10305000      4.45405000      6.15975000       nan
     H      8.96705000      6.34305000      8.30745000       nan
     H     10.43795000      6.60055000      7.33705000       nan
     H      9.12675000      7.03495000      5.31855000       nan
     H      8.02935000      7.70155000      6.56965000       nan
     H      5.93225000      7.08045000      3.69255000       nan
     H      3.56205000      8.01445000      7.23365000       nan
     H      7.28555000      4.08935000      7.29825000       nan
     C      5.90085000      7.17445000      4.78805000 -269.1742
     C      6.36545000      5.82705000      5.35035000 -271.0642
     C      4.49195000      7.47925000      5.32365000 -269.3526
     C      4.53555000      7.73405000      6.80515000 -271.4237
     C      7.96535000      4.42535000      6.50135000 -269.6092
     C      9.40675000      4.67215000      6.98605000 -269.0585
     C      9.42575000      6.17205000      7.31995000 -269.1181
     C      8.54645000      6.79595000      6.22635000 -269.9065
     N      7.57505000      5.72545000      5.93865000 -381.2369
     O      5.61625000      4.84105000      5.27235000 -509.5898
     O      5.55265000      7.62935000      7.48505000 -511.2173
