42
cls=0 
     H      8.39695000      7.30890000      5.36790000       nan
     H      9.41485000      9.10770000      7.48780000       nan
     H      6.90285000      9.46990000      7.24780000       nan
     H      6.64675000      7.74630000      7.56800000       nan
     H      6.28415000      9.29980000     10.73340000       nan
     H     10.74675000      4.76000000      8.16410000       nan
     H     12.51215000      5.13980000     10.26460000       nan
     H     12.94045000      5.56900000      8.59170000       nan
     H     11.80445000      7.45800000     10.73940000       nan
     H     13.27535000      7.71550000      9.76900000       nan
     H     11.96415000      8.14990000      7.75050000       nan
     H     10.86675000      8.81650000      9.00160000       nan
     H      7.27305000      5.69460000      9.36880000       nan
     H      5.05745000      3.92010000     10.24000000       nan
     H      3.72465000      4.72730000      8.36340000       nan
     H      4.79675000      5.59850000      6.77110000       nan
     H      9.26225000      8.89540000      3.90590000       nan
     H     10.12295000      5.20430000      9.73020000       nan
     H      7.91895000      5.50560000     11.68060000       nan
     H      5.90745000      3.68450000      8.69960000       nan
     H      4.15425000      6.14830000      9.38150000       nan
     C      9.16895000      9.17190000      4.96650000 -271.5609
     C      8.73825000      8.28940000      7.22000000 -270.6048
     C      9.20285000      6.94200000      7.78230000 -271.6749
     C      7.32935000      8.59420000      7.75560000 -269.5046
     C      7.37295000      8.84900000      9.23710000 -272.7432
     C     10.80275000      5.54030000      8.93330000 -270.0176
     C     12.24415000      5.78710000      9.41800000 -269.3461
     C     12.26315000      7.28700000      9.75190000 -269.3688
     C     11.38385000      7.91090000      8.65830000 -270.1902
     C      7.02215000      4.98680000     11.31110000 -271.0286
     C      5.56475000      4.44510000      9.41660000 -269.6746
     C      4.54895000      5.37300000      8.70830000 -270.3806
     N      8.77975000      8.16530000      5.77370000 -381.8170
     N     10.41245000      6.84040000      8.37060000 -381.8076
     N      6.66145000      5.19100000     10.01010000 -381.0117
     O      9.43465000     10.31550000      5.37230000 -510.3008
     O      8.45365000      5.95600000      7.70430000 -510.3291
     O      8.39005000      8.74430000      9.91700000 -511.0013
     O      6.19335000      9.18870000      9.75630000 -512.7042
     O      6.36795000      4.30960000     12.09410000 -509.8043
     O      5.17775000      5.99760000      7.58120000 -511.3189
