19
cls=0 
     H      6.46105000      7.52300000      3.76715000       nan
     H      9.34445000      8.69450000      6.74565000       nan
     H      6.41495000      5.23480000      4.69995000       nan
     H      9.31775000      6.37080000      7.66125000       nan
     H      7.09385000      3.91510000      6.44665000       nan
     H      4.04665000      6.29160000      7.74575000       nan
     H      7.86335000      9.30950000      4.78385000       nan
     H      5.08075000      4.18370000      8.23285000       nan
     H      3.65555000      5.77740000      6.13945000       nan
     C      7.89345000      8.28980000      5.19535000 -268.7784
     C      7.08035000      7.29150000      4.63515000 -268.9308
     C      8.69445000      7.94040000      6.29155000 -268.9609
     C      7.05225000      5.99820000      5.14955000 -268.7622
     C      8.68105000      6.64590000      6.81795000 -268.7692
     C      7.84635000      5.66820000      6.25875000 -270.4394
     C      4.82855000      4.46500000      7.19975000 -272.1789
     N      4.16435000      5.62280000      6.98635000 -381.9936
     O      7.84365000      4.42460000      6.81855000 -511.5191
     O      5.14895000      3.69050000      6.28765000 -510.8853
