35
cls=0 
     H      9.39195000      8.36110000      3.61400000       nan
     H     12.27535000      9.53260000      6.59250000       nan
     H      9.34585000      6.07290000      4.54680000       nan
     H     12.24865000      7.20890000      7.50810000       nan
     H     10.02475000      4.75320000      6.29350000       nan
     H      8.13835000      6.16560000     10.18160000       nan
     H      9.20225000      4.96690000      8.59120000       nan
     H      7.81665000      3.85240000      8.56080000       nan
     H      6.97755000      7.12970000      7.59260000       nan
     H      6.84585000      6.09290000      4.81620000       nan
     H      4.28975000      6.61380000      4.92840000       nan
     H      3.72465000      4.36330000      5.77690000       nan
     H      5.21135000      4.26650000      4.77510000       nan
     H      5.32145000      4.21490000      6.55490000       nan
     H     10.79425000     10.14760000      4.63070000       nan
     H      5.83685000      6.61350000     10.38600000       nan
     H      6.40935000      7.73940000      5.29870000       nan
     H      4.43245000      6.58130000      6.67920000       nan
     C     10.82435000      9.12790000      5.04220000 -268.7787
     C     10.01125000      8.12960000      4.48200000 -268.9259
     C     11.62535000      8.77850000      6.13840000 -268.9585
     C      9.98315000      6.83630000      4.99640000 -268.7554
     C     11.61195000      7.48400000      6.66480000 -268.7800
     C     10.77725000      6.50630000      6.10560000 -270.4545
     C      6.17955000      5.85290000      9.66900000 -271.8873
     C      8.11065000      4.91140000      8.48520000 -270.5750
     C      7.75945000      5.30310000      7.04660000 -271.9312
     C      6.35845000      6.68470000      5.60690000 -269.9706
     C      4.87985000      6.18530000      5.75560000 -268.8621
     C      4.78165000      4.66290000      5.70810000 -268.2679
     N      7.50895000      5.70740000      9.52930000 -382.2366
     N      7.09525000      6.46090000      6.83320000 -381.6796
     O     10.77455000      5.26270000      6.66540000 -511.5571
     O      5.36115000      5.22530000      8.97630000 -510.6167
     O      8.07985000      4.52860000      6.13450000 -510.4678
