19
cls=0 
     H      5.46060000      7.05200000      7.04420000       nan
     H      3.84020000      9.42030000      6.16090000       nan
     H      3.96680000      8.86350000      7.87560000       nan
     H      7.15980000     10.08820000      8.33280000       nan
     H      4.89390000      4.05480000      5.00200000       nan
     H      6.60480000      6.20040000      4.77470000       nan
     H      5.74090000      3.52350000      7.03350000       nan
     H      5.28560000      5.78110000      3.65610000       nan
     C      4.49640000      8.97560000      6.91870000 -270.2808
     C      5.72790000      9.85850000      7.09030000 -272.4966
     C      5.79180000      4.57820000      6.72530000 -272.1266
     C      5.52130000      6.01950000      4.70380000 -270.7002
     C      4.85630000      7.35530000      5.10410000 -271.6769
     N      4.92960000      7.67450000      6.43010000 -381.3800
     N      5.18870000      4.86130000      5.55060000 -382.2977
     O      6.22090000      9.78820000      8.34390000 -512.5178
     O      6.26600000     10.47650000      6.19770000 -510.8324
     O      6.35590000      5.44300000      7.41210000 -511.0007
     O      4.35060000      8.08810000      4.26200000 -510.1841
