30
cls=0 
     H      5.43590000      7.21605000      5.16225000       nan
     H      6.45380000      9.01485000      7.28215000       nan
     H      3.94180000      9.37705000      7.04215000       nan
     H      3.68570000      7.65345000      7.36235000       nan
     H      7.78570000      4.66715000      7.95845000       nan
     H      9.55110000      5.04695000     10.05895000       nan
     H      9.97940000      5.47615000      8.38605000       nan
     H      8.84340000      7.36515000     10.53375000       nan
     H     10.31430000      7.62265000      9.56335000       nan
     H      9.00310000      8.05705000      7.54485000       nan
     H      7.90570000      8.72365000      8.79595000       nan
     H      6.33880000      6.90885000     10.26955000       nan
     H      6.30120000      8.80255000      3.70025000       nan
     H      4.40020000      8.68775000      8.63355000       nan
     H      5.63020000      5.72365000     11.29975000       nan
     C      6.20790000      9.07905000      4.76085000 -271.5723
     C      5.77720000      8.19655000      7.01435000 -270.6336
     C      6.24180000      6.84915000      7.57665000 -271.7942
     C      4.36830000      8.50135000      7.54995000 -269.0483
     C      7.84170000      5.44745000      8.72765000 -270.5184
     C      6.89100000      4.97755000      9.84205000 -271.6844
     C      9.28310000      5.69425000      9.21235000 -269.6625
     C      9.30210000      7.19415000      9.54625000 -269.7152
     C      8.42280000      7.81805000      8.45265000 -270.6464
     N      5.81870000      8.07245000      5.56805000 -381.8145
     N      7.45140000      6.74755000      8.16495000 -382.1148
     N      6.30660000      5.94585000     10.59755000 -381.3655
     O      6.47360000     10.22265000      5.16665000 -510.3138
     O      5.49260000      5.86315000      7.49865000 -510.4018
     O      6.69000000      3.77735000     10.02435000 -510.1285
