18
cls=0 
     H      3.67430000      8.72960000      5.05180000       nan
     H      5.93430000      8.66200000      3.93660000       nan
     H      6.65780000      9.31350000      5.42370000       nan
     H      4.44230000      6.52900000      4.16930000       nan
     H      7.32570000      7.70050000      7.14780000       nan
     H      4.39620000      4.24080000      5.10210000       nan
     H      7.29900000      5.37680000      8.06340000       nan
     H      4.37050000     10.32890000      4.68660000       nan
     H      4.39170000      9.70270000      6.36520000       nan
     H      5.82540000      3.67110000      7.11240000       nan
     C      4.48500000      9.42620000      5.30460000 -268.7691
     C      5.83340000      8.69600000      5.03250000 -269.1073
     C      5.87470000      7.29580000      5.59750000 -269.2666
     C      5.06160000      6.29750000      5.03730000 -268.9626
     C      6.67570000      6.94640000      6.69370000 -268.9878
     C      5.03350000      5.00420000      5.55170000 -269.0366
     C      6.66230000      5.65190000      7.22010000 -269.0166
     C      5.82760000      4.67420000      6.66090000 -269.0154
