20
cls=0 
     H      7.66310000      6.77750000      6.43620000       nan
     H      5.44750000      5.00300000      7.30740000       nan
     H      4.11470000      5.81020000      5.43080000       nan
     H      5.18680000      6.68140000      3.83850000       nan
     H      3.60790000      8.10320000      6.19300000       nan
     H      3.96960000      7.08240000      7.62170000       nan
     H      5.19040000      8.23070000      6.98940000       nan
     H      8.39210000      4.77870000      5.99540000       nan
     H      8.30900000      6.58850000      8.74800000       nan
     H      8.17930000      3.76930000      4.62020000       nan
     C      7.41220000      6.06970000      8.37850000 -271.7698
     C      5.95480000      5.52800000      6.48400000 -270.4821
     C      6.43330000      4.46600000      5.48280000 -271.8863
     C      4.93900000      6.45590000      5.77570000 -270.7460
     C      4.39280000      7.52890000      6.70740000 -268.8026
     N      7.05150000      6.27390000      7.07750000 -381.9715
     N      7.76270000      4.32050000      5.34310000 -381.5884
     O      6.75800000      5.39250000      9.16150000 -510.5297
     O      5.61490000      3.83840000      4.79010000 -510.2981
     O      5.56780000      7.08050000      4.64860000 -511.3558
