46
cls=0 
     H      9.39195000      8.36110000      4.15270000       nan
     H     12.27535000      9.53260000      7.13120000       nan
     H      9.34585000      6.07290000      5.08550000       nan
     H     12.24865000      7.20890000      8.04680000       nan
     H      5.19375000      6.38990000     12.03230000       nan
     H      3.86095000      7.19710000     10.15570000       nan
     H      4.93305000      8.06830000      8.56340000       nan
     H      8.13835000      6.16560000     10.72030000       nan
     H      9.20225000      4.96690000      9.12990000       nan
     H      7.81665000      3.85240000      9.09950000       nan
     H      6.97755000      7.12970000      8.13130000       nan
     H      6.84585000      6.09290000      5.35490000       nan
     H      4.28975000      6.61380000      5.46710000       nan
     H      4.54835000      6.07750000      8.21780000       nan
     H      3.72465000      4.36330000      6.31560000       nan
     H      5.21135000      4.26650000      5.31380000       nan
     H      5.32145000      4.21490000      7.09360000       nan
     H      5.53125000      7.62660000      3.99410000       nan
     H     10.79425000     10.14760000      5.16940000       nan
     H     10.77505000      5.50320000      7.09580000       nan
     H      6.53125000      7.47960000     11.65820000       nan
     H      4.29055000      8.61810000     11.17380000       nan
     H      6.05185000      9.21950000      3.96770000       nan
     C     10.82435000      9.12790000      5.58090000 -268.7798
     C     10.01125000      8.12960000      5.02070000 -268.6979
     C     11.62535000      8.77850000      6.67710000 -268.7421
     C      9.98315000      6.83630000      5.53510000 -268.6345
     C     11.61195000      7.48400000      7.20350000 -268.7387
     C     10.77725000      6.50630000      6.64430000 -268.7403
     C      5.70105000      6.91490000     11.20890000 -269.4402
     C      6.17955000      5.85290000     10.20770000 -272.1095
     C      4.68525000      7.84280000     10.50060000 -270.2449
     C      8.11065000      4.91140000      9.02390000 -270.4860
     C      7.75945000      5.30310000      7.58530000 -271.6175
     C      6.35845000      6.68470000      6.14560000 -270.3418
     C      6.42915000      8.15000000      5.71740000 -271.6689
     C      4.87985000      6.18530000      6.29430000 -270.6646
     C      4.78165000      4.66290000      6.24680000 -268.5957
     N      7.50895000      5.70740000     10.06800000 -382.1358
     N      7.09525000      6.46090000      7.37190000 -381.3200
     N      5.82605000      8.43310000      4.54270000 -381.3846
     O      5.36115000      5.22530000      9.51500000 -510.7127
     O      5.31405000      8.46740000      9.37350000 -510.5360
     O      8.07985000      4.52860000      6.67320000 -510.0568
     O      6.99325000      9.01480000      6.40420000 -510.1194
     O      4.30035000      6.69820000      7.49050000 -511.0354
