41
cls=0 
     H      9.68775000      7.16045000      7.03970000       nan
     H     11.45315000      7.54025000      9.14020000       nan
     H     11.88145000      7.96945000      7.46730000       nan
     H     10.74545000      9.85845000      9.61500000       nan
     H     12.21635000     10.11595000      8.64460000       nan
     H     10.90515000     10.55035000      6.62610000       nan
     H      9.80775000     11.21695000      7.87720000       nan
     H      8.24085000      9.40215000      9.35080000       nan
     H      7.65815000      7.37685000     11.39170000       nan
     H      6.21405000      8.09505000      8.24440000       nan
     H      3.99845000      6.32055000      9.11560000       nan
     H      6.94305000      6.09625000      7.80360000       nan
     H      8.00695000      4.89755000      6.21320000       nan
     H      6.62135000      3.78305000      6.18280000       nan
     H      5.78225000      7.06035000      5.21460000       nan
     H      7.81025000     10.30985000      6.25420000       nan
     H      6.96455000      9.03585000     11.24850000       nan
     H      3.78365000      7.50515000      7.78870000       nan
     H      5.39115000      6.54615000      3.60830000       nan
     C      8.14385000      9.34245000      6.65790000 -272.4229
     C      9.74375000      7.94075000      7.80890000 -271.1235
     C      8.79305000      7.47085000      8.92330000 -272.3194
     C     11.18515000      8.18755000      8.29360000 -270.1012
     C     11.20415000      9.68745000      8.62750000 -270.1363
     C     10.32485000     10.31135000      7.53390000 -271.1338
     C      7.22045000      8.11455000     10.70470000 -270.6185
     C      5.96315000      7.38725000     10.18670000 -271.6709
     C      4.50575000      6.84555000      8.29220000 -269.9476
     C      4.98425000      5.78355000      7.29100000 -271.1562
     C      6.91535000      4.84205000      6.10720000 -269.7844
     C      6.56415000      5.23375000      4.66860000 -271.1142
     N      9.35345000      9.24085000      7.24620000 -382.7927
     N      8.20865000      8.43915000      9.67880000 -382.2896
     N      5.60245000      7.59145000      8.88570000 -381.4445
     N      6.31365000      5.63805000      7.15130000 -381.0301
     N      5.89995000      6.39155000      4.45520000 -380.6273
     O      7.39465000      8.35645000      6.57990000 -511.2654
     O      8.59205000      6.27065000      9.10560000 -510.9350
     O      5.30895000      6.71005000     10.96970000 -510.1671
     O      4.16585000      5.15595000      6.59830000 -509.6337
     O      6.88455000      4.45925000      3.75650000 -509.4930
