29
cls=0 
     H      4.39115000      7.34135000      3.81050000       nan
     H      7.27455000      8.51285000      6.78900000       nan
     H      4.34505000      5.05315000      4.74330000       nan
     H      7.24785000      6.18915000      7.70460000       nan
     H      5.02395000      3.73345000      6.49000000       nan
     H      5.88225000      6.21005000      9.61420000       nan
     H      7.64765000      6.58985000     11.71470000       nan
     H      8.07595000      7.01905000     10.04180000       nan
     H      6.93995000      8.90805000     12.18950000       nan
     H      8.41085000      9.16555000     11.21910000       nan
     H      7.09965000      9.59995000      9.20060000       nan
     H      6.00225000     10.26655000     10.45170000       nan
     H      5.79345000      9.12785000      4.82720000       nan
     H      4.00475000      9.35945000      8.82870000       nan
     H      5.25845000      6.65435000     11.18030000       nan
     C      5.82355000      8.10815000      5.23870000 -268.8844
     C      5.01045000      7.10985000      4.67850000 -269.0376
     C      6.62455000      7.75875000      6.33490000 -269.0785
     C      4.98235000      5.81655000      5.19290000 -268.9766
     C      6.61115000      6.46425000      6.86130000 -268.8992
     C      5.77645000      5.48655000      6.30210000 -270.6262
     C      4.33835000      8.39205000      9.23240000 -270.9564
     C      5.93825000      6.99035000     10.38340000 -269.7070
     C      7.37965000      7.23715000     10.86810000 -269.1890
     C      7.39865000      8.73705000     11.20200000 -269.3144
     C      6.51935000      9.36095000     10.10840000 -270.1671
     N      5.54795000      8.29045000      9.82070000 -381.4055
     O      5.77375000      4.24295000      6.86190000 -511.9869
     O      3.58915000      7.40605000      9.15440000 -509.6936
