22
cls=0 
     H      5.90210000      6.62635000      3.71515000       nan
     H      5.47730000      7.45745000      5.03235000       nan
     H      8.16920000      7.50805000      3.85015000       nan
     H      7.66660000      8.28735000      5.37115000       nan
     H      8.38860000      7.07665000      7.13875000       nan
     H      5.16530000      4.36045000      8.21645000       nan
     H      3.54490000      6.72875000      7.33315000       nan
     H      3.67150000      6.17195000      9.04785000       nan
     H      8.45510000      5.36465000      7.21505000       nan
     H      5.83460000      7.10965000      9.28485000       nan
     H      5.03450000      3.71265000      5.99135000       nan
     C      7.47570000      7.43055000      4.70715000 -269.3674
     C      7.80010000      6.11445000      5.41385000 -271.2449
     C      4.20110000      6.28405000      8.09095000 -270.6933
     C      5.43260000      7.16695000      8.26255000 -272.0656
     C      4.56100000      4.66375000      6.27635000 -271.7143
     N      6.10100000      7.49295000      4.22195000 -379.5208
     N      8.35100000      6.18535000      6.65315000 -381.1084
     N      4.63430000      4.98295000      7.60235000 -382.2126
     O      7.55050000      5.02735000      4.87615000 -509.8419
     O      5.97070000      7.78495000      7.36995000 -511.9774
     O      4.05530000      5.39655000      5.43425000 -510.5439
