none
     RDKit          3D

 12 12  0  0  0  0  0  0  0  0999 V2000
    3.0743   -0.5998   -0.0104 C   0  0  0  0  0  0  0  0  0  0  0  0
    1.6993   -0.6772   -0.0057 C   0  0  0  0  0  0  0  0  0  0  0  0
    1.0605   -1.9162   -0.0134 N   0  0  0  0  0  0  0  0  0  0  0  0
    0.9104    0.4032    0.0041 N   0  0  0  0  0  0  0  0  0  0  0  0
    1.5376    1.5897    0.0104 C   0  0  0  0  0  0  0  0  0  0  0  0
    2.8641    1.7852    0.0075 N   0  0  0  0  0  0  0  0  0  0  0  0
    3.6095    0.6672   -0.0031 C   0  0  0  0  0  0  0  0  0  0  0  0
    3.7000   -1.4805   -0.0320 H   0  0  0  0  0  0  0  0  0  0  0  0
    1.3722   -2.5052    0.7500 H   0  0  0  0  0  0  0  0  0  0  0  0
    0.0600   -1.7378    0.0356 H   0  0  0  0  0  0  0  0  0  0  0  0
    0.9111    2.4749    0.0163 H   0  0  0  0  0  0  0  0  0  0  0  0
    4.6841    0.8228   -0.0114 H   0  0  0  0  0  0  0  0  0  0  0  0
  1  2  2  0
  1  7  1  0
  2  3  1  0
  2  4  1  0
  4  5  2  0
  5  6  1  0
  6  7  2  0
  1  8  1  0
  3  9  1  0
  3 10  1  0
  5 11  1  0
  7 12  1  0
M  END
