none
     RDKit          3D

  8  7  0  0  0  0  0  0  0  0999 V2000
    1.4897    1.5513    0.0010 C   0  0  0  0  0  0  0  0  0  0  0  0
    2.8435    1.7149    0.0001 N   0  0  0  0  0  0  0  0  0  0  0  0
    3.6643    0.7265    0.0004 C   0  0  0  0  0  0  0  0  0  0  0  0
    0.8595    0.4301    0.0023 N   0  0  0  0  0  0  0  0  0  0  0  0
    0.8961    2.4818    0.0004 H   0  0  0  0  0  0  0  0  0  0  0  0
    4.7463    0.9377   -0.0003 H   0  0  0  0  0  0  0  0  0  0  0  0
    3.3922   -0.3400    0.0013 H   0  0  0  0  0  0  0  0  0  0  0  0
    1.4831   -0.3691    0.0028 H   0  0  0  0  0  0  0  0  0  0  0  0
  1  2  1  0
  1  4  2  0
  2  3  2  0
  1  5  1  0
  3  6  1  0
  3  7  1  0
  4  8  1  0
M  END
