none
     RDKit          3D

 21 19  0  0  0  0  0  0  0  0999 V2000
    3.1289   -0.5592   -0.0216 C   0  0  0  0  0  0  0  0  0  0  0  0
    1.6417   -0.5310   -0.1428 C   0  0  0  0  0  0  0  0  0  0  0  0
    0.9682   -1.6958   -0.3386 N   0  0  0  0  0  0  0  0  0  0  0  0
    0.9284    0.5499   -0.0741 N   0  0  0  0  0  0  0  0  0  0  0  0
    3.9098    0.5101    0.1725 C   0  0  0  0  0  0  0  0  0  0  0  0
   -1.8690    0.4588    0.0460 N   0  0  0  0  0  0  0  0  0  0  0  0
   -2.4551   -0.7551    0.1626 C   0  0  0  0  0  0  0  0  0  0  0  0
   -1.7956   -1.7780    0.3161 O   0  0  0  0  0  0  0  0  0  0  0  0
   -3.9357   -0.8126    0.1019 C   0  0  0  0  0  0  0  0  0  0  0  0
   -4.7753    0.2183   -0.0620 C   0  0  0  0  0  0  0  0  0  0  0  0
    3.5824   -1.5407   -0.1246 H   0  0  0  0  0  0  0  0  0  0  0  0
    1.3492   -2.5271    0.0922 H   0  0  0  0  0  0  0  0  0  0  0  0
   -0.0372   -1.6279   -0.1490 H   0  0  0  0  0  0  0  0  0  0  0  0
    1.5326    1.3622    0.0584 H   0  0  0  0  0  0  0  0  0  0  0  0
    4.9873    0.3868    0.2359 H   0  0  0  0  0  0  0  0  0  0  0  0
    3.5334    1.5199    0.2764 H   0  0  0  0  0  0  0  0  0  0  0  0
   -2.3516    1.3064   -0.1981 H   0  0  0  0  0  0  0  0  0  0  0  0
   -0.8424    0.4943    0.0158 H   0  0  0  0  0  0  0  0  0  0  0  0
   -4.3313   -1.8196    0.2036 H   0  0  0  0  0  0  0  0  0  0  0  0
   -4.4487    1.2451   -0.1665 H   0  0  0  0  0  0  0  0  0  0  0  0
   -5.8468    0.0415   -0.0904 H   0  0  0  0  0  0  0  0  0  0  0  0
  1  2  1  0
  1  5  2  0
  2  3  1  0
  2  4  2  0
  6  7  1  0
  7  8  2  0
  7  9  1  0
  9 10  2  3
  1 11  1  0
  3 12  1  0
  3 13  1  0
  4 14  1  0
  5 15  1  0
  5 16  1  0
  6 17  1  0
  6 18  1  0
  9 19  1  0
 10 20  1  0
 10 21  1  0
M  END
