none
     RDKit          3D

  4  3  0  0  0  0  0  0  0  0999 V2000
   -2.4551    1.6441   -0.0022 C   0  0  0  0  0  0  0  0  0  0  0  0
   -1.8530    2.7105   -0.0036 O   0  0  0  0  0  0  0  0  0  0  0  0
   -3.5555    1.5905   -0.0015 H   0  0  0  0  0  0  0  0  0  0  0  0
   -1.9326    0.6742   -0.0015 H   0  0  0  0  0  0  0  0  0  0  0  0
  1  2  2  0
  1  3  1  0
  1  4  1  0
M  END
