none
     RDKit          3D

 23 21  0  0  0  0  0  0  0  0999 V2000
    1.6301   -0.6925   -0.1409 C   0  0  0  0  0  0  0  0  0  0  0  0
    0.9349   -1.8460   -0.3245 N   0  0  0  0  0  0  0  0  0  0  0  0
    1.0823    0.4702   -0.1287 N   0  0  0  0  0  0  0  0  0  0  0  0
    1.8069    1.6133    0.0567 C   0  0  0  0  0  0  0  0  0  0  0  0
    3.0773    1.7010    0.2376 N   0  0  0  0  0  0  0  0  0  0  0  0
   -1.8841    0.4815    0.0057 N   0  0  0  0  0  0  0  0  0  0  0  0
   -2.4859   -0.7328    0.0522 C   0  0  0  0  0  0  0  0  0  0  0  0
   -1.8093   -1.7565    0.1063 O   0  0  0  0  0  0  0  0  0  0  0  0
   -3.9819   -0.7758    0.0351 C   0  0  0  0  0  0  0  0  0  0  0  0
   -4.5619   -2.1610    0.0905 C   0  0  0  0  0  0  0  0  0  0  0  0
   -4.7694    0.3115   -0.0236 C   0  0  0  0  0  0  0  0  0  0  0  0
    2.7066   -0.8892   -0.0130 H   0  0  0  0  0  0  0  0  0  0  0  0
    1.2861   -2.6842    0.1210 H   0  0  0  0  0  0  0  0  0  0  0  0
   -0.0842   -1.7702   -0.2243 H   0  0  0  0  0  0  0  0  0  0  0  0
    1.2229    2.5496    0.0505 H   0  0  0  0  0  0  0  0  0  0  0  0
    3.5355    0.7959    0.2274 H   0  0  0  0  0  0  0  0  0  0  0  0
   -2.3623    1.3569   -0.1195 H   0  0  0  0  0  0  0  0  0  0  0  0
   -0.8654    0.4977   -0.0412 H   0  0  0  0  0  0  0  0  0  0  0  0
   -4.2250   -2.7506   -0.7689 H   0  0  0  0  0  0  0  0  0  0  0  0
   -5.6567   -2.1503    0.0737 H   0  0  0  0  0  0  0  0  0  0  0  0
   -4.2517   -2.6694    1.0093 H   0  0  0  0  0  0  0  0  0  0  0  0
   -4.3969    1.3269   -0.0590 H   0  0  0  0  0  0  0  0  0  0  0  0
   -5.8514    0.2075   -0.0317 H   0  0  0  0  0  0  0  0  0  0  0  0
  1  2  1  0
  1  3  2  0
  3  4  1  0
  4  5  2  0
  6  7  1  0
  7  8  2  0
  7  9  1  0
  9 10  1  0
  9 11  2  3
  1 12  1  0
  2 13  1  0
  2 14  1  0
  4 15  1  0
  5 16  1  0
  6 17  1  0
  6 18  1  0
 10 19  1  0
 10 20  1  0
 10 21  1  0
 11 22  1  0
 11 23  1  0
M  END
