none
     RDKit          3D

  9  8  0  0  0  0  0  0  0  0999 V2000
    5.2046   -0.9084   -0.0318 C   0  0  0  0  0  0  0  0  0  0  0  0
    3.9926   -1.3487   -0.0263 N   0  0  0  0  0  0  0  0  0  0  0  0
    3.0098   -0.4010    0.0130 C   0  0  0  0  0  0  0  0  0  0  0  0
    1.7193   -0.7448    0.0223 C   0  0  0  0  0  0  0  0  0  0  0  0
    5.4798    0.1608   -0.0071 H   0  0  0  0  0  0  0  0  0  0  0  0
    6.0390   -1.6273   -0.0628 H   0  0  0  0  0  0  0  0  0  0  0  0
    3.2728    0.6555    0.0372 H   0  0  0  0  0  0  0  0  0  0  0  0
    1.4255   -1.7889   -0.0012 H   0  0  0  0  0  0  0  0  0  0  0  0
    0.9395    0.0065    0.0535 H   0  0  0  0  0  0  0  0  0  0  0  0
  1  2  2  3
  2  3  1  0
  3  4  2  3
  1  5  1  0
  1  6  1  0
  3  7  1  0
  4  8  1  0
  4  9  1  0
M  END
