none
     RDKit          3D

  9  8  0  0  0  0  0  0  0  0999 V2000
    1.5269    1.7040   -0.0036 C   0  0  0  0  0  0  0  0  0  0  0  0
    2.8135    1.7579    0.0012 N   0  0  0  0  0  0  0  0  0  0  0  0
    3.5573    0.6099    0.0041 C   0  0  0  0  0  0  0  0  0  0  0  0
    3.1652   -0.6686    0.0029 C   0  0  0  0  0  0  0  0  0  0  0  0
    0.9221    0.7833   -0.0057 H   0  0  0  0  0  0  0  0  0  0  0  0
    0.9577    2.6477   -0.0058 H   0  0  0  0  0  0  0  0  0  0  0  0
    4.6311    0.8003    0.0079 H   0  0  0  0  0  0  0  0  0  0  0  0
    3.9110   -1.4578    0.0057 H   0  0  0  0  0  0  0  0  0  0  0  0
    2.1304   -0.9822   -0.0007 H   0  0  0  0  0  0  0  0  0  0  0  0
  1  2  2  3
  2  3  1  0
  3  4  2  3
  1  5  1  0
  1  6  1  0
  3  7  1  0
  4  8  1  0
  4  9  1  0
M  END
