none
     RDKit          3D

 20 18  0  0  0  0  0  0  0  0999 V2000
    4.0302   -1.5322    0.0072 N   0  0  0  0  0  0  0  0  0  0  0  0
    3.1268   -0.5771   -0.0059 C   0  0  0  0  0  0  0  0  0  0  0  0
    1.6388   -0.7098    0.0059 C   0  0  0  0  0  0  0  0  0  0  0  0
    1.0499   -1.9215    0.0332 N   0  0  0  0  0  0  0  0  0  0  0  0
    0.9285    0.3964   -0.0044 N   0  0  0  0  0  0  0  0  0  0  0  0
   -3.8372    1.5878   -0.0220 N   0  0  0  0  0  0  0  0  0  0  0  0
   -2.4658    1.6361   -0.0082 C   0  0  0  0  0  0  0  0  0  0  0  0
   -1.8608    2.6992   -0.0037 O   0  0  0  0  0  0  0  0  0  0  0  0
   -1.8487    0.4055   -0.0001 N   0  0  0  0  0  0  0  0  0  0  0  0
   -2.4546   -0.8245   -0.0116 C   0  0  0  0  0  0  0  0  0  0  0  0
   -1.8312   -1.8882    0.0045 O   0  0  0  0  0  0  0  0  0  0  0  0
    4.9469   -1.0639   -0.0152 H   0  0  0  0  0  0  0  0  0  0  0  0
    3.4784    0.4499   -0.0323 H   0  0  0  0  0  0  0  0  0  0  0  0
    1.6196   -2.7567    0.1618 H   0  0  0  0  0  0  0  0  0  0  0  0
    0.0365   -2.0043    0.1121 H   0  0  0  0  0  0  0  0  0  0  0  0
    1.5402    1.2194   -0.0307 H   0  0  0  0  0  0  0  0  0  0  0  0
   -4.4071    0.8079    0.2863 H   0  0  0  0  0  0  0  0  0  0  0  0
   -4.3147    2.4715    0.0341 H   0  0  0  0  0  0  0  0  0  0  0  0
   -0.8219    0.4185    0.0026 H   0  0  0  0  0  0  0  0  0  0  0  0
   -3.5531   -0.8290   -0.0403 H   0  0  0  0  0  0  0  0  0  0  0  0
  1  2  2  0
  2  3  1  0
  3  4  1  0
  3  5  2  0
  6  7  1  0
  7  8  2  0
  7  9  1  0
  9 10  1  0
 10 11  2  0
  1 12  1  0
  2 13  1  0
  4 14  1  0
  4 15  1  0
  5 16  1  0
  6 17  1  0
  6 18  1  0
  9 19  1  0
 10 20  1  0
M  END
