none
     RDKit          3D

 19 17  0  0  0  0  0  0  0  0999 V2000
    3.1055   -0.5239   -0.0435 C   0  0  0  0  0  0  0  0  0  0  0  0
    1.6176   -0.6179   -0.0968 C   0  0  0  0  0  0  0  0  0  0  0  0
    1.0272   -1.8344   -0.2418 N   0  0  0  0  0  0  0  0  0  0  0  0
    0.8218    0.4026   -0.0141 N   0  0  0  0  0  0  0  0  0  0  0  0
    3.8041    0.6091    0.0953 C   0  0  0  0  0  0  0  0  0  0  0  0
   -2.5715    1.5908   -0.1051 C   0  0  0  0  0  0  0  0  0  0  0  0
   -2.0639    2.6907   -0.2778 O   0  0  0  0  0  0  0  0  0  0  0  0
   -1.8720    0.4252    0.0277 N   0  0  0  0  0  0  0  0  0  0  0  0
   -2.4217   -0.8098    0.2203 C   0  0  0  0  0  0  0  0  0  0  0  0
   -1.7689   -1.8409    0.3363 O   0  0  0  0  0  0  0  0  0  0  0  0
    3.6338   -1.4668   -0.1475 H   0  0  0  0  0  0  0  0  0  0  0  0
    1.4962   -2.6307    0.1685 H   0  0  0  0  0  0  0  0  0  0  0  0
    0.0265   -1.8394   -0.0251 H   0  0  0  0  0  0  0  0  0  0  0  0
    1.3620    1.2688    0.0748 H   0  0  0  0  0  0  0  0  0  0  0  0
    4.8901    0.5755    0.1106 H   0  0  0  0  0  0  0  0  0  0  0  0
    3.3521    1.5878    0.1952 H   0  0  0  0  0  0  0  0  0  0  0  0
   -3.6639    1.4573   -0.0399 H   0  0  0  0  0  0  0  0  0  0  0  0
   -0.8486    0.4778   -0.0260 H   0  0  0  0  0  0  0  0  0  0  0  0
   -3.5229   -0.8045    0.2647 H   0  0  0  0  0  0  0  0  0  0  0  0
  1  2  1  0
  1  5  2  0
  2  3  1  0
  2  4  2  0
  6  7  2  0
  6  8  1  0
  8  9  1  0
  9 10  2  0
  1 11  1  0
  3 12  1  0
  3 13  1  0
  4 14  1  0
  5 15  1  0
  5 16  1  0
  6 17  1  0
  8 18  1  0
  9 19  1  0
M  END
