none
     RDKit          3D

 18 16  0  0  0  0  0  0  0  0999 V2000
    1.6314   -0.7082   -0.0720 C   0  0  0  0  0  0  0  0  0  0  0  0
    1.0122   -1.9124   -0.1941 N   0  0  0  0  0  0  0  0  0  0  0  0
    0.9966    0.4090   -0.0391 N   0  0  0  0  0  0  0  0  0  0  0  0
    1.6444    1.6098    0.0835 C   0  0  0  0  0  0  0  0  0  0  0  0
    2.9145    1.7885    0.1785 N   0  0  0  0  0  0  0  0  0  0  0  0
   -2.5156    1.6177   -0.1180 C   0  0  0  0  0  0  0  0  0  0  0  0
   -1.9668    2.6991   -0.2789 O   0  0  0  0  0  0  0  0  0  0  0  0
   -1.8440    0.4331   -0.0139 N   0  0  0  0  0  0  0  0  0  0  0  0
   -2.4171   -0.7925    0.1658 C   0  0  0  0  0  0  0  0  0  0  0  0
   -1.7730   -1.8317    0.2536 O   0  0  0  0  0  0  0  0  0  0  0  0
    2.7260   -0.8227   -0.0146 H   0  0  0  0  0  0  0  0  0  0  0  0
    1.4702   -2.7248    0.2013 H   0  0  0  0  0  0  0  0  0  0  0  0
   -0.0005   -1.9219   -0.0380 H   0  0  0  0  0  0  0  0  0  0  0  0
    0.9932    2.5014    0.1032 H   0  0  0  0  0  0  0  0  0  0  0  0
    3.4392    0.9215    0.1455 H   0  0  0  0  0  0  0  0  0  0  0  0
   -3.6106    1.5167   -0.0428 H   0  0  0  0  0  0  0  0  0  0  0  0
   -0.8277    0.4673   -0.0799 H   0  0  0  0  0  0  0  0  0  0  0  0
   -3.5175   -0.7692    0.2265 H   0  0  0  0  0  0  0  0  0  0  0  0
  1  2  1  0
  1  3  2  0
  3  4  1  0
  4  5  2  0
  6  7  2  0
  6  8  1  0
  8  9  1  0
  9 10  2  0
  1 11  1  0
  2 12  1  0
  2 13  1  0
  4 14  1  0
  5 15  1  0
  6 16  1  0
  8 17  1  0
  9 18  1  0
M  END
