none
     RDKit          3D

 11 10  0  0  0  0  0  0  0  0999 V2000
    5.1642   -0.9335    0.0086 C   0  0  0  0  0  0  0  0  0  0  0  0
    3.9457   -1.3550    0.0026 N   0  0  0  0  0  0  0  0  0  0  0  0
    2.9763   -0.3840   -0.0079 C   0  0  0  0  0  0  0  0  0  0  0  0
    1.6726   -0.6938   -0.0145 C   0  0  0  0  0  0  0  0  0  0  0  0
    1.1467   -1.9659   -0.0135 N   0  0  0  0  0  0  0  0  0  0  0  0
    5.4561    0.1315    0.0053 H   0  0  0  0  0  0  0  0  0  0  0  0
    5.9876   -1.6656    0.0166 H   0  0  0  0  0  0  0  0  0  0  0  0
    3.2603    0.6667   -0.0081 H   0  0  0  0  0  0  0  0  0  0  0  0
    0.9163    0.0869   -0.0072 H   0  0  0  0  0  0  0  0  0  0  0  0
    1.8971   -2.6424    0.1504 H   0  0  0  0  0  0  0  0  0  0  0  0
    0.3900   -2.0793    0.6549 H   0  0  0  0  0  0  0  0  0  0  0  0
  1  2  2  0
  2  3  1  0
  3  4  2  0
  4  5  1  0
  1  6  1  0
  1  7  1  0
  3  8  1  0
  4  9  1  0
  5 10  1  0
  5 11  1  0
M  END
