none
     RDKit          3D

  9  9  0  0  0  0  0  0  0  0999 V2000
    4.9494    0.5173    0.0029 N   0  0  0  0  0  0  0  0  0  0  0  0
    5.2018   -0.8251    0.0013 C   0  0  0  0  0  0  0  0  0  0  0  0
    4.0898   -1.5234   -0.0012 N   0  0  0  0  0  0  0  0  0  0  0  0
    3.0801   -0.5961   -0.0010 C   0  0  0  0  0  0  0  0  0  0  0  0
    3.5917    0.6799    0.0016 C   0  0  0  0  0  0  0  0  0  0  0  0
    5.6448    1.2507    0.0049 H   0  0  0  0  0  0  0  0  0  0  0  0
    6.2052   -1.2296    0.0019 H   0  0  0  0  0  0  0  0  0  0  0  0
    2.0404   -0.8970   -0.0027 H   0  0  0  0  0  0  0  0  0  0  0  0
    3.1240    1.6538    0.0026 H   0  0  0  0  0  0  0  0  0  0  0  0
  1  2  1  0
  1  5  1  0
  2  3  2  0
  3  4  1  0
  4  5  2  0
  1  6  1  0
  2  7  1  0
  4  8  1  0
  5  9  1  0
M  END
