none
     RDKit          3D

 15 13  0  0  0  0  0  0  0  0999 V2000
    1.5933   -0.7308    0.0174 C   0  0  0  0  0  0  0  0  0  0  0  0
    1.0350   -1.9430   -0.1747 N   0  0  0  0  0  0  0  0  0  0  0  0
    0.9109    0.3569    0.0833 N   0  0  0  0  0  0  0  0  0  0  0  0
   -2.4607    1.6392   -0.0865 C   0  0  0  0  0  0  0  0  0  0  0  0
   -1.9207    2.7340   -0.1693 O   0  0  0  0  0  0  0  0  0  0  0  0
   -1.7954    0.4503    0.0121 N   0  0  0  0  0  0  0  0  0  0  0  0
   -2.3860   -0.7775    0.1048 C   0  0  0  0  0  0  0  0  0  0  0  0
   -1.7704   -1.8342    0.1924 O   0  0  0  0  0  0  0  0  0  0  0  0
    2.6935   -0.7480    0.1025 H   0  0  0  0  0  0  0  0  0  0  0  0
    1.4980   -2.7463    0.2308 H   0  0  0  0  0  0  0  0  0  0  0  0
    0.0179   -1.9751   -0.0501 H   0  0  0  0  0  0  0  0  0  0  0  0
    1.5607    1.1461    0.2152 H   0  0  0  0  0  0  0  0  0  0  0  0
   -3.5578    1.5306   -0.0846 H   0  0  0  0  0  0  0  0  0  0  0  0
   -0.7699    0.4806    0.0123 H   0  0  0  0  0  0  0  0  0  0  0  0
   -3.4877   -0.7416    0.0952 H   0  0  0  0  0  0  0  0  0  0  0  0
  1  2  1  0
  1  3  2  0
  4  5  2  0
  4  6  1  0
  6  7  1  0
  7  8  2  0
  1  9  1  0
  2 10  1  0
  2 11  1  0
  3 12  1  0
  4 13  1  0
  6 14  1  0
  7 15  1  0
M  END
