none
     RDKit          3D

  7  6  0  0  0  0  0  0  0  0999 V2000
    4.9861    0.5665   -0.0136 N   0  0  0  0  0  0  0  0  0  0  0  0
    5.1179   -0.7780    0.0074 C   0  0  0  0  0  0  0  0  0  0  0  0
    4.1496   -1.6160    0.0118 N   0  0  0  0  0  0  0  0  0  0  0  0
    4.0848    0.9404   -0.2818 H   0  0  0  0  0  0  0  0  0  0  0  0
    5.7722    1.0986   -0.3709 H   0  0  0  0  0  0  0  0  0  0  0  0
    6.1658   -1.1222    0.0296 H   0  0  0  0  0  0  0  0  0  0  0  0
    3.2573   -1.1184    0.0182 H   0  0  0  0  0  0  0  0  0  0  0  0
  1  2  1  0
  2  3  2  0
  1  4  1  0
  1  5  1  0
  2  6  1  0
  3  7  1  0
M  END
