none
     RDKit          3D

 11 10  0  0  0  0  0  0  0  0999 V2000
   -2.4612   -0.8309   -0.0001 C   0  0  0  0  0  0  0  0  0  0  0  0
   -1.8258   -1.8781    0.0001 O   0  0  0  0  0  0  0  0  0  0  0  0
   -3.9470   -0.7973    0.0011 C   0  0  0  0  0  0  0  0  0  0  0  0
   -4.6590   -2.1113    0.0030 C   0  0  0  0  0  0  0  0  0  0  0  0
   -4.5590    0.3961    0.0005 C   0  0  0  0  0  0  0  0  0  0  0  0
   -1.9562    0.1498   -0.0012 H   0  0  0  0  0  0  0  0  0  0  0  0
   -4.3936   -2.6932   -0.8857 H   0  0  0  0  0  0  0  0  0  0  0  0
   -5.7467   -1.9834    0.0038 H   0  0  0  0  0  0  0  0  0  0  0  0
   -4.3921   -2.6915    0.8924 H   0  0  0  0  0  0  0  0  0  0  0  0
   -4.0114    1.3337   -0.0009 H   0  0  0  0  0  0  0  0  0  0  0  0
   -5.6432    0.4663    0.0013 H   0  0  0  0  0  0  0  0  0  0  0  0
  1  2  2  0
  1  3  1  0
  3  4  1  0
  3  5  2  3
  1  6  1  0
  4  7  1  0
  4  8  1  0
  4  9  1  0
  5 10  1  0
  5 11  1  0
M  END
