none
     RDKit          3D

 16 14  0  0  0  0  0  0  0  0999 V2000
    1.6268   -0.6701   -0.0543 C   0  0  0  0  0  0  0  0  0  0  0  0
    0.9754   -1.8597   -0.1480 N   0  0  0  0  0  0  0  0  0  0  0  0
    1.0312    0.4680   -0.0994 N   0  0  0  0  0  0  0  0  0  0  0  0
    1.7120    1.6487   -0.0034 C   0  0  0  0  0  0  0  0  0  0  0  0
    2.9816    1.7980    0.1375 N   0  0  0  0  0  0  0  0  0  0  0  0
   -1.9217    0.3410   -0.1348 N   0  0  0  0  0  0  0  0  0  0  0  0
   -2.4602   -0.8684    0.1624 C   0  0  0  0  0  0  0  0  0  0  0  0
   -1.7824   -1.8659    0.3667 O   0  0  0  0  0  0  0  0  0  0  0  0
    2.7137   -0.8157    0.0543 H   0  0  0  0  0  0  0  0  0  0  0  0
    1.3816   -2.6571    0.3259 H   0  0  0  0  0  0  0  0  0  0  0  0
   -0.0416   -1.8228   -0.0129 H   0  0  0  0  0  0  0  0  0  0  0  0
    1.0893    2.5586   -0.0515 H   0  0  0  0  0  0  0  0  0  0  0  0
    3.4780    0.9136    0.1682 H   0  0  0  0  0  0  0  0  0  0  0  0
   -2.4784    1.1624   -0.3189 H   0  0  0  0  0  0  0  0  0  0  0  0
   -0.9056    0.4221   -0.1911 H   0  0  0  0  0  0  0  0  0  0  0  0
   -3.5613   -0.8584    0.1971 H   0  0  0  0  0  0  0  0  0  0  0  0
  1  2  1  0
  1  3  2  0
  3  4  1  0
  4  5  2  0
  6  7  1  0
  7  8  2  0
  1  9  1  0
  2 10  1  0
  2 11  1  0
  4 12  1  0
  5 13  1  0
  6 14  1  0
  6 15  1  0
  7 16  1  0
M  END
