none
     RDKit          3D

 24 22  0  0  0  0  0  0  0  0999 V2000
    3.1127   -0.5801    0.0401 C   0  0  0  0  0  0  0  0  0  0  0  0
    1.6326   -0.5577   -0.1631 C   0  0  0  0  0  0  0  0  0  0  0  0
    0.9729   -1.7247   -0.3919 N   0  0  0  0  0  0  0  0  0  0  0  0
    0.9182    0.5242   -0.1360 N   0  0  0  0  0  0  0  0  0  0  0  0
    3.8811    0.4921    0.2724 C   0  0  0  0  0  0  0  0  0  0  0  0
   -1.8699    0.4401    0.0043 N   0  0  0  0  0  0  0  0  0  0  0  0
   -2.4876   -0.7656    0.0311 C   0  0  0  0  0  0  0  0  0  0  0  0
   -1.8316   -1.8036    0.0653 O   0  0  0  0  0  0  0  0  0  0  0  0
   -3.9856   -0.7812    0.0153 C   0  0  0  0  0  0  0  0  0  0  0  0
   -4.5939   -2.1559    0.0470 C   0  0  0  0  0  0  0  0  0  0  0  0
   -4.7527    0.3226   -0.0232 C   0  0  0  0  0  0  0  0  0  0  0  0
    3.5723   -1.5615   -0.0306 H   0  0  0  0  0  0  0  0  0  0  0  0
    1.3318   -2.5558    0.0607 H   0  0  0  0  0  0  0  0  0  0  0  0
   -0.0438   -1.6600   -0.2741 H   0  0  0  0  0  0  0  0  0  0  0  0
    1.5157    1.3377    0.0270 H   0  0  0  0  0  0  0  0  0  0  0  0
    4.9544    0.3720    0.3982 H   0  0  0  0  0  0  0  0  0  0  0  0
    3.4982    1.5024    0.3444 H   0  0  0  0  0  0  0  0  0  0  0  0
   -2.3282    1.3248   -0.1229 H   0  0  0  0  0  0  0  0  0  0  0  0
   -0.8444    0.4500   -0.0478 H   0  0  0  0  0  0  0  0  0  0  0  0
   -4.2744   -2.7334   -0.8265 H   0  0  0  0  0  0  0  0  0  0  0  0
   -5.6883   -2.1165    0.0315 H   0  0  0  0  0  0  0  0  0  0  0  0
   -4.2952   -2.6963    0.9516 H   0  0  0  0  0  0  0  0  0  0  0  0
   -4.3609    1.3318   -0.0375 H   0  0  0  0  0  0  0  0  0  0  0  0
   -5.8366    0.2411   -0.0316 H   0  0  0  0  0  0  0  0  0  0  0  0
  1  2  1  0
  1  5  2  0
  2  3  1  0
  2  4  2  0
  6  7  1  0
  7  8  2  0
  7  9  1  0
  9 10  1  0
  9 11  2  3
  1 12  1  0
  3 13  1  0
  3 14  1  0
  4 15  1  0
  5 16  1  0
  5 17  1  0
  6 18  1  0
  6 19  1  0
 10 20  1  0
 10 21  1  0
 10 22  1  0
 11 23  1  0
 11 24  1  0
M  END
