none
     RDKit          3D

 11 10  0  0  0  0  0  0  0  0999 V2000
    2.9716   -0.5715    0.0015 C   0  0  0  0  0  0  0  0  0  0  0  0
    1.6519   -0.7835   -0.0050 C   0  0  0  0  0  0  0  0  0  0  0  0
    1.0244   -2.0043    0.0002 N   0  0  0  0  0  0  0  0  0  0  0  0
    3.0071    1.9203   -0.0176 N   0  0  0  0  0  0  0  0  0  0  0  0
    3.5924    0.7735   -0.0051 C   0  0  0  0  0  0  0  0  0  0  0  0
    3.6710   -1.4000    0.0073 H   0  0  0  0  0  0  0  0  0  0  0  0
    0.9384    0.0365   -0.0247 H   0  0  0  0  0  0  0  0  0  0  0  0
    1.6071   -2.7826    0.3002 H   0  0  0  0  0  0  0  0  0  0  0  0
    0.1132   -2.0018    0.4553 H   0  0  0  0  0  0  0  0  0  0  0  0
    1.9897    1.8286   -0.0321 H   0  0  0  0  0  0  0  0  0  0  0  0
    4.6960    0.7601    0.0059 H   0  0  0  0  0  0  0  0  0  0  0  0
  1  2  2  0
  1  5  1  0
  2  3  1  0
  4  5  2  0
  1  6  1  0
  2  7  1  0
  3  8  1  0
  3  9  1  0
  4 10  1  0
  5 11  1  0
M  END
