none
     RDKit          3D

  6  5  0  0  0  0  0  0  0  0999 V2000
   -1.8508    0.3994   -0.0012 N   0  0  0  0  0  0  0  0  0  0  0  0
   -2.4540   -0.8181    0.0001 C   0  0  0  0  0  0  0  0  0  0  0  0
   -1.8366   -1.8712    0.0004 O   0  0  0  0  0  0  0  0  0  0  0  0
   -2.3702    1.2653   -0.0015 H   0  0  0  0  0  0  0  0  0  0  0  0
   -0.8396    0.4301   -0.0019 H   0  0  0  0  0  0  0  0  0  0  0  0
   -3.5541   -0.7552    0.0008 H   0  0  0  0  0  0  0  0  0  0  0  0
  1  2  1  0
  2  3  2  0
  1  4  1  0
  1  5  1  0
  2  6  1  0
M  END
