none
     RDKit          3D

  4  3  0  0  0  0  0  0  0  0999 V2000
   -3.8465    1.5837   -0.0013 N   0  0  0  0  0  0  0  0  0  0  0  0
   -2.8728    1.7045    0.2736 H   0  0  0  0  0  0  0  0  0  0  0  0
   -4.1135    0.6518    0.3129 H   0  0  0  0  0  0  0  0  0  0  0  0
   -4.3824    2.2365    0.5688 H   0  0  0  0  0  0  0  0  0  0  0  0
  1  2  1  0
  1  3  1  0
  1  4  1  0
M  END
