none
     RDKit          3D

 17 15  0  0  0  0  0  0  0  0999 V2000
    3.0410   -0.7511   -0.0524 C   0  0  0  0  0  0  0  0  0  0  0  0
    1.7057   -0.6123   -0.1074 C   0  0  0  0  0  0  0  0  0  0  0  0
    0.9621   -1.7508   -0.3142 N   0  0  0  0  0  0  0  0  0  0  0  0
    1.0214    0.5702    0.0247 N   0  0  0  0  0  0  0  0  0  0  0  0
    1.6302    1.6885    0.2200 C   0  0  0  0  0  0  0  0  0  0  0  0
   -1.8779    0.2927   -0.2389 N   0  0  0  0  0  0  0  0  0  0  0  0
   -2.4424   -0.8346    0.2630 C   0  0  0  0  0  0  0  0  0  0  0  0
   -1.7920   -1.7648    0.7194 O   0  0  0  0  0  0  0  0  0  0  0  0
    3.4990   -1.7269   -0.1836 H   0  0  0  0  0  0  0  0  0  0  0  0
    3.7338    0.0625    0.1033 H   0  0  0  0  0  0  0  0  0  0  0  0
    1.3974   -2.5889    0.0519 H   0  0  0  0  0  0  0  0  0  0  0  0
    0.0240   -1.6502    0.0882 H   0  0  0  0  0  0  0  0  0  0  0  0
    2.7185    1.8346    0.3022 H   0  0  0  0  0  0  0  0  0  0  0  0
    1.0238    2.6044    0.3190 H   0  0  0  0  0  0  0  0  0  0  0  0
   -2.4067    1.0174   -0.6987 H   0  0  0  0  0  0  0  0  0  0  0  0
   -0.8565    0.3513   -0.2655 H   0  0  0  0  0  0  0  0  0  0  0  0
   -3.5431   -0.8282    0.2093 H   0  0  0  0  0  0  0  0  0  0  0  0
  1  2  2  3
  2  3  1  0
  2  4  1  0
  4  5  2  3
  6  7  1  0
  7  8  2  0
  1  9  1  0
  1 10  1  0
  3 11  1  0
  3 12  1  0
  5 13  1  0
  5 14  1  0
  6 15  1  0
  6 16  1  0
  7 17  1  0
M  END
