none
     RDKit          3D

 10  9  0  0  0  0  0  0  0  0999 V2000
    1.6537   -0.7082   -0.0039 C   0  0  0  0  0  0  0  0  0  0  0  0
    1.0433   -1.9234   -0.0109 N   0  0  0  0  0  0  0  0  0  0  0  0
    0.9903    0.3892   -0.0066 N   0  0  0  0  0  0  0  0  0  0  0  0
    1.5913    1.6136   -0.0002 C   0  0  0  0  0  0  0  0  0  0  0  0
    2.8571    1.8452    0.0091 N   0  0  0  0  0  0  0  0  0  0  0  0
    2.7520   -0.7996    0.0038 H   0  0  0  0  0  0  0  0  0  0  0  0
    1.5198   -2.6850    0.4575 H   0  0  0  0  0  0  0  0  0  0  0  0
    0.0484   -1.8784    0.1858 H   0  0  0  0  0  0  0  0  0  0  0  0
    0.9065    2.4790    0.0008 H   0  0  0  0  0  0  0  0  0  0  0  0
    3.4062    0.9925    0.0007 H   0  0  0  0  0  0  0  0  0  0  0  0
  1  2  1  0
  1  3  2  0
  3  4  1  0
  4  5  2  0
  1  6  1  0
  2  7  1  0
  2  8  1  0
  4  9  1  0
  5 10  1  0
M  END
