none
     RDKit          3D

 20 18  0  0  0  0  0  0  0  0999 V2000
    3.7635   -1.7735   -0.1844 N   0  0  0  0  0  0  0  0  0  0  0  0
    3.1580   -0.6320   -0.1297 C   0  0  0  0  0  0  0  0  0  0  0  0
    1.6425   -0.5708   -0.2134 C   0  0  0  0  0  0  0  0  0  0  0  0
    0.9585   -1.7403   -0.3461 N   0  0  0  0  0  0  0  0  0  0  0  0
    1.0356    0.5740   -0.1582 N   0  0  0  0  0  0  0  0  0  0  0  0
   -1.7830    0.5055    0.1063 N   0  0  0  0  0  0  0  0  0  0  0  0
   -2.3606   -0.6903    0.3746 C   0  0  0  0  0  0  0  0  0  0  0  0
   -1.6932   -1.6777    0.6716 O   0  0  0  0  0  0  0  0  0  0  0  0
   -3.8383   -0.7742    0.2986 C   0  0  0  0  0  0  0  0  0  0  0  0
   -4.6822    0.2230   -0.0118 C   0  0  0  0  0  0  0  0  0  0  0  0
    4.7773   -1.6249   -0.1266 H   0  0  0  0  0  0  0  0  0  0  0  0
    3.6836    0.3314   -0.0350 H   0  0  0  0  0  0  0  0  0  0  0  0
    1.4941   -2.5640   -0.0796 H   0  0  0  0  0  0  0  0  0  0  0  0
    0.0100   -1.7362    0.0409 H   0  0  0  0  0  0  0  0  0  0  0  0
    1.7135    1.3388   -0.0642 H   0  0  0  0  0  0  0  0  0  0  0  0
   -2.2720    1.2893   -0.2991 H   0  0  0  0  0  0  0  0  0  0  0  0
   -0.7593    0.5300    0.0475 H   0  0  0  0  0  0  0  0  0  0  0  0
   -4.2281   -1.7647    0.5123 H   0  0  0  0  0  0  0  0  0  0  0  0
   -4.3631    1.2345   -0.2308 H   0  0  0  0  0  0  0  0  0  0  0  0
   -5.7514    0.0322   -0.0428 H   0  0  0  0  0  0  0  0  0  0  0  0
  1  2  2  0
  2  3  1  0
  3  4  1  0
  3  5  2  0
  6  7  1  0
  7  8  2  0
  7  9  1  0
  9 10  2  3
  1 11  1  0
  2 12  1  0
  4 13  1  0
  4 14  1  0
  5 15  1  0
  6 16  1  0
  6 17  1  0
  9 18  1  0
 10 19  1  0
 10 20  1  0
M  END
