none
     RDKit          3D

 19 18  0  0  0  0  0  0  0  0999 V2000
    1.5841   -0.7281    0.0308 C   0  0  0  0  0  0  0  0  0  0  0  0
    1.0248   -1.9363   -0.1827 N   0  0  0  0  0  0  0  0  0  0  0  0
    0.9058    0.3625    0.0833 N   0  0  0  0  0  0  0  0  0  0  0  0
   -3.8368    1.5658   -0.0575 N   0  0  0  0  0  0  0  0  0  0  0  0
   -2.4674    1.6491   -0.0577 C   0  0  0  0  0  0  0  0  0  0  0  0
   -1.8974    2.7337   -0.1187 O   0  0  0  0  0  0  0  0  0  0  0  0
   -1.8085    0.4536    0.0143 N   0  0  0  0  0  0  0  0  0  0  0  0
   -2.4031   -0.7748    0.0822 C   0  0  0  0  0  0  0  0  0  0  0  0
   -1.7795   -1.8312    0.1459 O   0  0  0  0  0  0  0  0  0  0  0  0
   -3.8808   -0.7784    0.0774 C   0  0  0  0  0  0  0  0  0  0  0  0
   -4.5254    0.3882    0.0076 C   0  0  0  0  0  0  0  0  0  0  0  0
    2.6813   -0.7518    0.1469 H   0  0  0  0  0  0  0  0  0  0  0  0
    1.4674   -2.7418    0.2404 H   0  0  0  0  0  0  0  0  0  0  0  0
    0.0040   -1.9591   -0.0866 H   0  0  0  0  0  0  0  0  0  0  0  0
    1.5534    1.1490    0.2370 H   0  0  0  0  0  0  0  0  0  0  0  0
   -4.3258    2.4517   -0.1122 H   0  0  0  0  0  0  0  0  0  0  0  0
   -0.7859    0.4832    0.0121 H   0  0  0  0  0  0  0  0  0  0  0  0
   -4.3818   -1.7349    0.1300 H   0  0  0  0  0  0  0  0  0  0  0  0
   -5.6084    0.4538   -0.0008 H   0  0  0  0  0  0  0  0  0  0  0  0
  1  2  1  0
  1  3  2  0
  4  5  1  0
  4 11  1  0
  5  6  2  0
  5  7  1  0
  7  8  1  0
  8  9  2  0
  8 10  1  0
 10 11  2  0
  1 12  1  0
  2 13  1  0
  2 14  1  0
  3 15  1  0
  4 16  1  0
  7 17  1  0
 10 18  1  0
 11 19  1  0
M  END
