none
     RDKit          3D

 13 12  0  0  0  0  0  0  0  0999 V2000
   -3.9818    1.6754   -0.0152 N   0  0  0  0  0  0  0  0  0  0  0  0
   -2.4202   -0.9109   -0.0320 C   0  0  0  0  0  0  0  0  0  0  0  0
   -1.8445   -1.9934   -0.0385 O   0  0  0  0  0  0  0  0  0  0  0  0
   -3.9001   -0.7924    0.0014 C   0  0  0  0  0  0  0  0  0  0  0  0
   -4.6572   -2.0851    0.0304 C   0  0  0  0  0  0  0  0  0  0  0  0
   -4.5020    0.4064    0.0074 C   0  0  0  0  0  0  0  0  0  0  0  0
   -3.0536    1.7716   -0.4173 H   0  0  0  0  0  0  0  0  0  0  0  0
   -4.6247    2.3805   -0.3740 H   0  0  0  0  0  0  0  0  0  0  0  0
   -1.8538    0.0330   -0.0386 H   0  0  0  0  0  0  0  0  0  0  0  0
   -4.4316   -2.6822   -0.8594 H   0  0  0  0  0  0  0  0  0  0  0  0
   -5.7405   -1.9250    0.0546 H   0  0  0  0  0  0  0  0  0  0  0  0
   -4.3895   -2.6670    0.9186 H   0  0  0  0  0  0  0  0  0  0  0  0
   -5.5915    0.4382    0.0608 H   0  0  0  0  0  0  0  0  0  0  0  0
  1  6  1  0
  2  3  2  0
  2  4  1  0
  4  5  1  0
  4  6  2  0
  1  7  1  0
  1  8  1  0
  2  9  1  0
  5 10  1  0
  5 11  1  0
  5 12  1  0
  6 13  1  0
M  END
