none
     RDKit          3D

 18 16  0  0  0  0  0  0  0  0999 V2000
    3.8347   -1.6575   -0.1194 N   0  0  0  0  0  0  0  0  0  0  0  0
    3.1389   -0.5703   -0.0754 C   0  0  0  0  0  0  0  0  0  0  0  0
    1.6227   -0.6420   -0.1219 C   0  0  0  0  0  0  0  0  0  0  0  0
    1.0352   -1.8650   -0.2110 N   0  0  0  0  0  0  0  0  0  0  0  0
    0.9156    0.4427   -0.0777 N   0  0  0  0  0  0  0  0  0  0  0  0
   -2.5112    1.5813   -0.1926 C   0  0  0  0  0  0  0  0  0  0  0  0
   -2.0120    2.6525   -0.5099 O   0  0  0  0  0  0  0  0  0  0  0  0
   -1.8020    0.4403    0.0540 N   0  0  0  0  0  0  0  0  0  0  0  0
   -2.3397   -0.7637    0.4089 C   0  0  0  0  0  0  0  0  0  0  0  0
   -1.6795   -1.7737    0.6242 O   0  0  0  0  0  0  0  0  0  0  0  0
    4.8343   -1.4261   -0.0879 H   0  0  0  0  0  0  0  0  0  0  0  0
    3.5823    0.4352   -0.0096 H   0  0  0  0  0  0  0  0  0  0  0  0
    1.6385   -2.6410    0.0495 H   0  0  0  0  0  0  0  0  0  0  0  0
    0.0829   -1.9336    0.1523 H   0  0  0  0  0  0  0  0  0  0  0  0
    1.5216    1.2712   -0.0273 H   0  0  0  0  0  0  0  0  0  0  0  0
   -3.6005    1.4564   -0.0779 H   0  0  0  0  0  0  0  0  0  0  0  0
   -0.7828    0.4882   -0.0426 H   0  0  0  0  0  0  0  0  0  0  0  0
   -3.4391   -0.7531    0.4894 H   0  0  0  0  0  0  0  0  0  0  0  0
  1  2  2  0
  2  3  1  0
  3  4  1  0
  3  5  2  0
  6  7  2  0
  6  8  1  0
  8  9  1  0
  9 10  2  0
  1 11  1  0
  2 12  1  0
  4 13  1  0
  4 14  1  0
  5 15  1  0
  6 16  1  0
  8 17  1  0
  9 18  1  0
M  END
