none
     RDKit          3D

 14 13  0  0  0  0  0  0  0  0999 V2000
    5.2546   -1.1978    0.0038 C   0  0  0  0  0  0  0  0  0  0  0  0
    3.9942   -1.4688    0.0006 N   0  0  0  0  0  0  0  0  0  0  0  0
    3.1376   -0.3852   -0.0024 C   0  0  0  0  0  0  0  0  0  0  0  0
    1.7886   -0.5340   -0.0061 C   0  0  0  0  0  0  0  0  0  0  0  0
    1.2894   -1.8257   -0.0072 N   0  0  0  0  0  0  0  0  0  0  0  0
    0.8592    0.4773   -0.0079 N   0  0  0  0  0  0  0  0  0  0  0  0
    1.1895    1.7199   -0.0073 C   0  0  0  0  0  0  0  0  0  0  0  0
    5.6744   -0.1765    0.0038 H   0  0  0  0  0  0  0  0  0  0  0  0
    5.9831   -2.0246    0.0054 H   0  0  0  0  0  0  0  0  0  0  0  0
    3.5832    0.6019   -0.0064 H   0  0  0  0  0  0  0  0  0  0  0  0
    2.0175   -2.4747    0.2885 H   0  0  0  0  0  0  0  0  0  0  0  0
    0.4469   -1.8629    0.5539 H   0  0  0  0  0  0  0  0  0  0  0  0
    2.2132    2.1236   -0.0062 H   0  0  0  0  0  0  0  0  0  0  0  0
    0.3865    2.4751   -0.0097 H   0  0  0  0  0  0  0  0  0  0  0  0
  1  2  2  0
  2  3  1  0
  3  4  2  0
  4  5  1  0
  4  6  1  0
  6  7  2  0
  1  8  1  0
  1  9  1  0
  3 10  1  0
  5 11  1  0
  5 12  1  0
  7 13  1  0
  7 14  1  0
M  END
