none
     RDKit          3D

 10  9  0  0  0  0  0  0  0  0999 V2000
   -3.8424    1.6580    0.0058 N   0  0  0  0  0  0  0  0  0  0  0  0
   -2.4896    1.6205    0.0066 C   0  0  0  0  0  0  0  0  0  0  0  0
   -1.8383    2.6585    0.0098 O   0  0  0  0  0  0  0  0  0  0  0  0
   -1.8909    0.3959    0.0027 N   0  0  0  0  0  0  0  0  0  0  0  0
   -2.4398   -0.8600   -0.0033 C   0  0  0  0  0  0  0  0  0  0  0  0
   -1.7697   -1.8848   -0.0061 O   0  0  0  0  0  0  0  0  0  0  0  0
   -4.3300    1.0283    0.6272 H   0  0  0  0  0  0  0  0  0  0  0  0
   -4.1937    2.6081    0.0694 H   0  0  0  0  0  0  0  0  0  0  0  0
   -0.8810    0.4227   -0.0041 H   0  0  0  0  0  0  0  0  0  0  0  0
   -3.5395   -0.8787   -0.0189 H   0  0  0  0  0  0  0  0  0  0  0  0
  1  2  1  0
  2  3  2  0
  2  4  1  0
  4  5  1  0
  5  6  2  0
  1  7  1  0
  1  8  1  0
  4  9  1  0
  5 10  1  0
M  END
