none
     RDKit          3D

 23 21  0  0  0  0  0  0  0  0999 V2000
    3.7621   -1.7642   -0.1129 N   0  0  0  0  0  0  0  0  0  0  0  0
    3.1462   -0.6303   -0.1344 C   0  0  0  0  0  0  0  0  0  0  0  0
    1.6314   -0.5867   -0.2362 C   0  0  0  0  0  0  0  0  0  0  0  0
    0.9586   -1.7660   -0.3043 N   0  0  0  0  0  0  0  0  0  0  0  0
    1.0150    0.5525   -0.2564 N   0  0  0  0  0  0  0  0  0  0  0  0
   -1.8302    0.4939    0.1061 N   0  0  0  0  0  0  0  0  0  0  0  0
   -2.4281   -0.7195    0.2036 C   0  0  0  0  0  0  0  0  0  0  0  0
   -1.7576   -1.7383    0.3544 O   0  0  0  0  0  0  0  0  0  0  0  0
   -3.9222   -0.7729    0.1216 C   0  0  0  0  0  0  0  0  0  0  0  0
   -4.4928   -2.1594    0.2400 C   0  0  0  0  0  0  0  0  0  0  0  0
   -4.7097    0.3051   -0.0430 C   0  0  0  0  0  0  0  0  0  0  0  0
    4.7734   -1.6040   -0.0463 H   0  0  0  0  0  0  0  0  0  0  0  0
    3.6627    0.3406   -0.0854 H   0  0  0  0  0  0  0  0  0  0  0  0
    1.4736   -2.5726    0.0301 H   0  0  0  0  0  0  0  0  0  0  0  0
   -0.0243   -1.7490   -0.0183 H   0  0  0  0  0  0  0  0  0  0  0  0
    1.6862    1.3267   -0.2031 H   0  0  0  0  0  0  0  0  0  0  0  0
   -2.2997    1.3438   -0.1630 H   0  0  0  0  0  0  0  0  0  0  0  0
   -0.8090    0.5069    0.0250 H   0  0  0  0  0  0  0  0  0  0  0  0
   -4.1242   -2.7930   -0.5748 H   0  0  0  0  0  0  0  0  0  0  0  0
   -5.5851   -2.1614    0.1812 H   0  0  0  0  0  0  0  0  0  0  0  0
   -4.2111   -2.6115    1.1978 H   0  0  0  0  0  0  0  0  0  0  0  0
   -4.3382    1.3200   -0.1254 H   0  0  0  0  0  0  0  0  0  0  0  0
   -5.7895    0.1980   -0.0974 H   0  0  0  0  0  0  0  0  0  0  0  0
  1  2  2  0
  2  3  1  0
  3  4  1  0
  3  5  2  0
  6  7  1  0
  7  8  2  0
  7  9  1  0
  9 10  1  0
  9 11  2  3
  1 12  1  0
  2 13  1  0
  4 14  1  0
  4 15  1  0
  5 16  1  0
  6 17  1  0
  6 18  1  0
 10 19  1  0
 10 20  1  0
 10 21  1  0
 11 22  1  0
 11 23  1  0
M  END
