none
     RDKit          3D

  8  7  0  0  0  0  0  0  0  0999 V2000
   -3.8125    1.5711   -0.0038 N   0  0  0  0  0  0  0  0  0  0  0  0
   -2.4644    1.6445   -0.0017 C   0  0  0  0  0  0  0  0  0  0  0  0
   -1.8472    2.6955   -0.0044 O   0  0  0  0  0  0  0  0  0  0  0  0
   -1.8717    0.4315    0.0037 N   0  0  0  0  0  0  0  0  0  0  0  0
   -4.2071    0.8305    0.5582 H   0  0  0  0  0  0  0  0  0  0  0  0
   -4.2543    2.4728    0.1291 H   0  0  0  0  0  0  0  0  0  0  0  0
   -2.3275   -0.2761   -0.5546 H   0  0  0  0  0  0  0  0  0  0  0  0
   -0.8693    0.4845   -0.1317 H   0  0  0  0  0  0  0  0  0  0  0  0
  1  2  1  0
  2  3  2  0
  2  4  1  0
  1  5  1  0
  1  6  1  0
  4  7  1  0
  4  8  1  0
M  END
