none
     RDKit          3D

  5  4  0  0  0  0  0  0  0  0999 V2000
    5.1951   -0.8333    0.0011 C   0  0  0  0  0  0  0  0  0  0  0  0
    4.0931   -1.5495   -0.0010 N   0  0  0  0  0  0  0  0  0  0  0  0
    6.2059   -1.2370    0.0016 H   0  0  0  0  0  0  0  0  0  0  0  0
    5.0057    0.2503    0.0024 H   0  0  0  0  0  0  0  0  0  0  0  0
    3.3604   -0.8690   -0.0008 H   0  0  0  0  0  0  0  0  0  0  0  0
  1  2  2  3
  1  3  1  0
  1  4  1  0
  2  5  1  0
M  END
