none
     RDKit          3D

 13 12  0  0  0  0  0  0  0  0999 V2000
    4.9568    0.5303    0.0027 N   0  0  0  0  0  0  0  0  0  0  0  0
    3.0778   -0.6066   -0.0007 C   0  0  0  0  0  0  0  0  0  0  0  0
    1.6675   -0.7350   -0.0021 C   0  0  0  0  0  0  0  0  0  0  0  0
    1.0407   -1.9211   -0.0048 N   0  0  0  0  0  0  0  0  0  0  0  0
    2.8870    1.8452    0.0029 N   0  0  0  0  0  0  0  0  0  0  0  0
    3.5884    0.6977    0.0017 C   0  0  0  0  0  0  0  0  0  0  0  0
    5.6433    1.2745    0.0047 H   0  0  0  0  0  0  0  0  0  0  0  0
    1.6090   -2.7572   -0.0039 H   0  0  0  0  0  0  0  0  0  0  0  0
    0.0140   -1.9758   -0.0029 H   0  0  0  0  0  0  0  0  0  0  0  0
    5.1289   -0.4548    0.0015 H   0  0  0  0  0  0  0  0  0  0  0  0
    3.8838   -1.3551   -0.0009 H   0  0  0  0  0  0  0  0  0  0  0  0
    1.0802    0.1951   -0.0012 H   0  0  0  0  0  0  0  0  0  0  0  0
    1.9034    1.6646    0.0017 H   0  0  0  0  0  0  0  0  0  0  0  0
  1  6  1  0
  2  3  2  0
  2  6  1  0
  3  4  1  0
  5  6  2  0
  1  7  1  0
  1 10  1  0
  2 11  1  0
  3 12  1  0
  4  8  1  0
  4  9  1  0
  5 13  1  0
M  END
