none
     RDKit          3D

 11 10  0  0  0  0  0  0  0  0999 V2000
   -2.4758   -0.8235    0.0001 C   0  0  0  0  0  0  0  0  0  0  0  0
   -1.8258   -1.8762    0.0004 O   0  0  0  0  0  0  0  0  0  0  0  0
   -3.9405   -0.8042    0.0011 C   0  0  0  0  0  0  0  0  0  0  0  0
   -4.6589   -2.1196    0.0030 C   0  0  0  0  0  0  0  0  0  0  0  0
   -4.5543    0.4042    0.0003 C   0  0  0  0  0  0  0  0  0  0  0  0
   -4.3765   -2.7200   -0.8775 H   0  0  0  0  0  0  0  0  0  0  0  0
   -5.7508   -1.9816    0.0033 H   0  0  0  0  0  0  0  0  0  0  0  0
   -4.3758   -2.7179    0.8847 H   0  0  0  0  0  0  0  0  0  0  0  0
   -5.6416    0.5076    0.0009 H   0  0  0  0  0  0  0  0  0  0  0  0
   -1.9733    0.1550   -0.0009 H   0  0  0  0  0  0  0  0  0  0  0  0
   -3.9883    1.3474   -0.0010 H   0  0  0  0  0  0  0  0  0  0  0  0
  1  2  2  0
  1  3  1  0
  3  4  1  0
  3  5  2  3
  1 10  1  0
  4  6  1  0
  4  7  1  0
  4  8  1  0
  5  9  1  0
  5 11  1  0
M  END
