none
     RDKit          3D

  8  7  0  0  0  0  0  0  0  0999 V2000
    2.8870    1.8452    0.0029 N   0  0  0  0  0  0  0  0  0  0  0  0
    3.5884    0.6977    0.0017 C   0  0  0  0  0  0  0  0  0  0  0  0
    4.0931   -1.5495   -0.0010 N   0  0  0  0  0  0  0  0  0  0  0  0
    3.0778   -0.6066   -0.0007 C   0  0  0  0  0  0  0  0  0  0  0  0
    1.9034    1.6646    0.0017 H   0  0  0  0  0  0  0  0  0  0  0  0
    4.6803    0.5641    0.0025 H   0  0  0  0  0  0  0  0  0  0  0  0
    4.9316   -1.0046    0.0006 H   0  0  0  0  0  0  0  0  0  0  0  0
    1.9823   -0.7063   -0.0018 H   0  0  0  0  0  0  0  0  0  0  0  0
  1  2  2  0
  2  4  1  0
  3  4  2  0
  1  5  1  0
  2  6  1  0
  3  7  1  0
  4  8  1  0
M  END
