none
     RDKit          3D

  5  4  0  0  0  0  0  0  0  0999 V2000
   -4.6589   -2.1196    0.0030 C   0  0  0  0  0  0  0  0  0  0  0  0
   -4.3765   -2.7200   -0.8775 H   0  0  0  0  0  0  0  0  0  0  0  0
   -5.7508   -1.9816    0.0033 H   0  0  0  0  0  0  0  0  0  0  0  0
   -4.3758   -2.7179    0.8847 H   0  0  0  0  0  0  0  0  0  0  0  0
   -4.1316   -1.1542    0.0016 H   0  0  0  0  0  0  0  0  0  0  0  0
  1  2  1  0
  1  3  1  0
  1  4  1  0
  1  5  1  0
M  END
