none
     RDKit          3D

 20 18  0  0  0  0  0  0  0  0999 V2000
    1.6675   -0.7350   -0.0021 C   0  0  0  0  0  0  0  0  0  0  0  0
    1.0407   -1.9211   -0.0048 N   0  0  0  0  0  0  0  0  0  0  0  0
    0.9437    0.4112   -0.0010 N   0  0  0  0  0  0  0  0  0  0  0  0
    1.5745    1.6042    0.0013 C   0  0  0  0  0  0  0  0  0  0  0  0
    2.8870    1.8452    0.0029 N   0  0  0  0  0  0  0  0  0  0  0  0
   -1.8431    0.4087   -0.0012 N   0  0  0  0  0  0  0  0  0  0  0  0
   -2.4758   -0.8235    0.0001 C   0  0  0  0  0  0  0  0  0  0  0  0
   -1.8258   -1.8762    0.0004 O   0  0  0  0  0  0  0  0  0  0  0  0
   -3.9405   -0.8042    0.0011 C   0  0  0  0  0  0  0  0  0  0  0  0
   -4.5543    0.4042    0.0003 C   0  0  0  0  0  0  0  0  0  0  0  0
    1.6090   -2.7572   -0.0039 H   0  0  0  0  0  0  0  0  0  0  0  0
    0.0140   -1.9758   -0.0029 H   0  0  0  0  0  0  0  0  0  0  0  0
    0.9029    2.4690    0.0020 H   0  0  0  0  0  0  0  0  0  0  0  0
    2.7630   -0.6353   -0.0010 H   0  0  0  0  0  0  0  0  0  0  0  0
    3.4085    0.9920    0.0020 H   0  0  0  0  0  0  0  0  0  0  0  0
   -0.7831    0.4147   -0.0014 H   0  0  0  0  0  0  0  0  0  0  0  0
   -5.6416    0.5076    0.0009 H   0  0  0  0  0  0  0  0  0  0  0  0
   -2.2859    1.3053   -0.0019 H   0  0  0  0  0  0  0  0  0  0  0  0
   -4.4678   -1.7696    0.0025 H   0  0  0  0  0  0  0  0  0  0  0  0
   -3.9883    1.3474   -0.0010 H   0  0  0  0  0  0  0  0  0  0  0  0
  1  2  1  0
  1  3  2  0
  3  4  1  0
  4  5  2  0
  6  7  1  0
  7  8  2  0
  7  9  1  0
  9 10  2  3
  1 14  1  0
  2 11  1  0
  2 12  1  0
  4 13  1  0
  5 15  1  0
  6 16  1  0
  6 18  1  0
  9 19  1  0
 10 17  1  0
 10 20  1  0
M  END
