none
     RDKit          3D

  9  8  0  0  0  0  0  0  0  0999 V2000
    5.1951   -0.8333    0.0011 C   0  0  0  0  0  0  0  0  0  0  0  0
    4.0931   -1.5495   -0.0010 N   0  0  0  0  0  0  0  0  0  0  0  0
    3.0778   -0.6066   -0.0007 C   0  0  0  0  0  0  0  0  0  0  0  0
    1.6675   -0.7350   -0.0021 C   0  0  0  0  0  0  0  0  0  0  0  0
    6.2059   -1.2370    0.0016 H   0  0  0  0  0  0  0  0  0  0  0  0
    5.0057    0.2503    0.0024 H   0  0  0  0  0  0  0  0  0  0  0  0
    3.4788    0.4177    0.0012 H   0  0  0  0  0  0  0  0  0  0  0  0
    1.1536   -1.7075   -0.0043 H   0  0  0  0  0  0  0  0  0  0  0  0
    1.0802    0.1951   -0.0012 H   0  0  0  0  0  0  0  0  0  0  0  0
  1  2  2  3
  2  3  1  0
  3  4  2  3
  1  5  1  0
  1  6  1  0
  3  7  1  0
  4  8  1  0
  4  9  1  0
M  END
