none
     RDKit          3D

  4  3  0  0  0  0  0  0  0  0999 V2000
   -3.8465    1.5837   -0.0013 N   0  0  0  0  0  0  0  0  0  0  0  0
   -4.3170    2.4807   -0.0019 H   0  0  0  0  0  0  0  0  0  0  0  0
   -2.8475    1.6283   -0.0019 H   0  0  0  0  0  0  0  0  0  0  0  0
   -4.3610    0.7262   -0.0001 H   0  0  0  0  0  0  0  0  0  0  0  0
  1  2  1  0
  1  3  1  0
  1  4  1  0
M  END
