none
     RDKit          3D

 24 22  0  0  0  0  0  0  0  0999 V2000
    3.0778   -0.6066   -0.0007 C   0  0  0  0  0  0  0  0  0  0  0  0
    1.6675   -0.7350   -0.0021 C   0  0  0  0  0  0  0  0  0  0  0  0
    1.0407   -1.9211   -0.0048 N   0  0  0  0  0  0  0  0  0  0  0  0
    0.9437    0.4112   -0.0010 N   0  0  0  0  0  0  0  0  0  0  0  0
    3.5884    0.6977    0.0017 C   0  0  0  0  0  0  0  0  0  0  0  0
   -1.8431    0.4087   -0.0012 N   0  0  0  0  0  0  0  0  0  0  0  0
   -2.4758   -0.8235    0.0001 C   0  0  0  0  0  0  0  0  0  0  0  0
   -1.8258   -1.8762    0.0004 O   0  0  0  0  0  0  0  0  0  0  0  0
   -3.9405   -0.8042    0.0011 C   0  0  0  0  0  0  0  0  0  0  0  0
   -4.6589   -2.1196    0.0030 C   0  0  0  0  0  0  0  0  0  0  0  0
   -4.5543    0.4042    0.0003 C   0  0  0  0  0  0  0  0  0  0  0  0
    1.6090   -2.7572   -0.0039 H   0  0  0  0  0  0  0  0  0  0  0  0
    0.0140   -1.9758   -0.0029 H   0  0  0  0  0  0  0  0  0  0  0  0
    3.8838   -1.3551   -0.0009 H   0  0  0  0  0  0  0  0  0  0  0  0
    1.4111    1.2952    0.0007 H   0  0  0  0  0  0  0  0  0  0  0  0
    4.6803    0.5641    0.0025 H   0  0  0  0  0  0  0  0  0  0  0  0
    3.0147    1.6363    0.0027 H   0  0  0  0  0  0  0  0  0  0  0  0
   -0.7831    0.4147   -0.0014 H   0  0  0  0  0  0  0  0  0  0  0  0
   -4.3765   -2.7200   -0.8775 H   0  0  0  0  0  0  0  0  0  0  0  0
   -5.7508   -1.9816    0.0033 H   0  0  0  0  0  0  0  0  0  0  0  0
   -4.3758   -2.7179    0.8847 H   0  0  0  0  0  0  0  0  0  0  0  0
   -5.6416    0.5076    0.0009 H   0  0  0  0  0  0  0  0  0  0  0  0
   -2.2859    1.3053   -0.0019 H   0  0  0  0  0  0  0  0  0  0  0  0
   -3.9883    1.3474   -0.0010 H   0  0  0  0  0  0  0  0  0  0  0  0
  1  2  1  0
  1  5  2  0
  2  3  1  0
  2  4  2  0
  6  7  1  0
  7  8  2  0
  7  9  1  0
  9 10  1  0
  9 11  2  3
  1 14  1  0
  3 12  1  0
  3 13  1  0
  4 15  1  0
  5 16  1  0
  5 17  1  0
  6 18  1  0
  6 23  1  0
 10 19  1  0
 10 20  1  0
 10 21  1  0
 11 22  1  0
 11 24  1  0
M  END
