none
     RDKit          3D

 18 17  0  0  0  0  0  0  0  0999 V2000
    3.0778   -0.6066   -0.0007 C   0  0  0  0  0  0  0  0  0  0  0  0
    1.6675   -0.7350   -0.0021 C   0  0  0  0  0  0  0  0  0  0  0  0
    1.0407   -1.9211   -0.0048 N   0  0  0  0  0  0  0  0  0  0  0  0
    0.9437    0.4112   -0.0010 N   0  0  0  0  0  0  0  0  0  0  0  0
    1.5745    1.6042    0.0013 C   0  0  0  0  0  0  0  0  0  0  0  0
    2.8870    1.8452    0.0029 N   0  0  0  0  0  0  0  0  0  0  0  0
    3.5884    0.6977    0.0017 C   0  0  0  0  0  0  0  0  0  0  0  0
   -1.8431    0.4087   -0.0012 N   0  0  0  0  0  0  0  0  0  0  0  0
   -2.4758   -0.8235    0.0001 C   0  0  0  0  0  0  0  0  0  0  0  0
   -1.8258   -1.8762    0.0004 O   0  0  0  0  0  0  0  0  0  0  0  0
    1.6090   -2.7572   -0.0039 H   0  0  0  0  0  0  0  0  0  0  0  0
    0.0140   -1.9758   -0.0029 H   0  0  0  0  0  0  0  0  0  0  0  0
    0.9029    2.4690    0.0020 H   0  0  0  0  0  0  0  0  0  0  0  0
    3.8838   -1.3551   -0.0009 H   0  0  0  0  0  0  0  0  0  0  0  0
    4.6803    0.5641    0.0025 H   0  0  0  0  0  0  0  0  0  0  0  0
   -0.7831    0.4147   -0.0014 H   0  0  0  0  0  0  0  0  0  0  0  0
   -2.2859    1.3053   -0.0019 H   0  0  0  0  0  0  0  0  0  0  0  0
   -3.5757   -0.8090    0.0009 H   0  0  0  0  0  0  0  0  0  0  0  0
  1  2  2  0
  1  7  1  0
  2  3  1  0
  2  4  1  0
  4  5  2  0
  5  6  1  0
  6  7  2  0
  8  9  1  0
  9 10  2  0
  1 14  1  0
  3 11  1  0
  3 12  1  0
  5 13  1  0
  7 15  1  0
  8 16  1  0
  8 17  1  0
  9 18  1  0
M  END
