none
     RDKit          3D

  7  6  0  0  0  0  0  0  0  0999 V2000
    4.9568    0.5303    0.0027 N   0  0  0  0  0  0  0  0  0  0  0  0
    5.1951   -0.8333    0.0011 C   0  0  0  0  0  0  0  0  0  0  0  0
    4.0931   -1.5495   -0.0010 N   0  0  0  0  0  0  0  0  0  0  0  0
    5.6433    1.2745    0.0047 H   0  0  0  0  0  0  0  0  0  0  0  0
    6.2059   -1.2370    0.0016 H   0  0  0  0  0  0  0  0  0  0  0  0
    3.9642    0.6517    0.0020 H   0  0  0  0  0  0  0  0  0  0  0  0
    3.3604   -0.8690   -0.0008 H   0  0  0  0  0  0  0  0  0  0  0  0
  1  2  1  0
  2  3  2  0
  1  4  1  0
  1  6  1  0
  2  5  1  0
  3  7  1  0
M  END
