none
     RDKit          3D

 12 12  0  0  0  0  0  0  0  0999 V2000
    3.0778   -0.6066   -0.0007 C   0  0  0  0  0  0  0  0  0  0  0  0
    1.6675   -0.7350   -0.0021 C   0  0  0  0  0  0  0  0  0  0  0  0
    1.0407   -1.9211   -0.0048 N   0  0  0  0  0  0  0  0  0  0  0  0
    0.9437    0.4112   -0.0010 N   0  0  0  0  0  0  0  0  0  0  0  0
    1.5745    1.6042    0.0013 C   0  0  0  0  0  0  0  0  0  0  0  0
    2.8870    1.8452    0.0029 N   0  0  0  0  0  0  0  0  0  0  0  0
    3.5884    0.6977    0.0017 C   0  0  0  0  0  0  0  0  0  0  0  0
    1.6090   -2.7572   -0.0039 H   0  0  0  0  0  0  0  0  0  0  0  0
    0.0140   -1.9758   -0.0029 H   0  0  0  0  0  0  0  0  0  0  0  0
    0.9029    2.4690    0.0020 H   0  0  0  0  0  0  0  0  0  0  0  0
    3.8838   -1.3551   -0.0009 H   0  0  0  0  0  0  0  0  0  0  0  0
    4.6803    0.5641    0.0025 H   0  0  0  0  0  0  0  0  0  0  0  0
  1  2  2  0
  1  7  1  0
  2  3  1  0
  2  4  1  0
  4  5  2  0
  5  6  1  0
  6  7  2  0
  1 11  1  0
  3  8  1  0
  3  9  1  0
  5 10  1  0
  7 12  1  0
M  END
