none
     RDKit          3D

 15 13  0  0  0  0  0  0  0  0999 V2000
    1.6675   -0.7350   -0.0021 C   0  0  0  0  0  0  0  0  0  0  0  0
    1.0407   -1.9211   -0.0048 N   0  0  0  0  0  0  0  0  0  0  0  0
    0.9437    0.4112   -0.0010 N   0  0  0  0  0  0  0  0  0  0  0  0
   -2.4541    1.6459   -0.0022 C   0  0  0  0  0  0  0  0  0  0  0  0
   -1.8542    2.7084   -0.0036 O   0  0  0  0  0  0  0  0  0  0  0  0
   -1.8431    0.4087   -0.0012 N   0  0  0  0  0  0  0  0  0  0  0  0
   -2.4758   -0.8235    0.0001 C   0  0  0  0  0  0  0  0  0  0  0  0
   -1.8258   -1.8762    0.0004 O   0  0  0  0  0  0  0  0  0  0  0  0
    1.6090   -2.7572   -0.0039 H   0  0  0  0  0  0  0  0  0  0  0  0
    0.0140   -1.9758   -0.0029 H   0  0  0  0  0  0  0  0  0  0  0  0
    2.7630   -0.6353   -0.0010 H   0  0  0  0  0  0  0  0  0  0  0  0
    1.4111    1.2952    0.0007 H   0  0  0  0  0  0  0  0  0  0  0  0
   -0.7831    0.4147   -0.0014 H   0  0  0  0  0  0  0  0  0  0  0  0
   -3.5530    1.5968   -0.0015 H   0  0  0  0  0  0  0  0  0  0  0  0
   -3.5757   -0.8090    0.0009 H   0  0  0  0  0  0  0  0  0  0  0  0
  1  2  1  0
  1  3  2  0
  4  5  2  0
  4  6  1  0
  6  7  1  0
  7  8  2  0
  1 11  1  0
  2  9  1  0
  2 10  1  0
  3 12  1  0
  4 14  1  0
  6 13  1  0
  7 15  1  0
M  END
