none
     RDKit          3D

 10  9  0  0  0  0  0  0  0  0999 V2000
   -3.8465    1.5837   -0.0013 N   0  0  0  0  0  0  0  0  0  0  0  0
   -2.4541    1.6459   -0.0022 C   0  0  0  0  0  0  0  0  0  0  0  0
   -1.8542    2.7084   -0.0036 O   0  0  0  0  0  0  0  0  0  0  0  0
   -1.8431    0.4087   -0.0012 N   0  0  0  0  0  0  0  0  0  0  0  0
   -2.4758   -0.8235    0.0001 C   0  0  0  0  0  0  0  0  0  0  0  0
   -1.8258   -1.8762    0.0004 O   0  0  0  0  0  0  0  0  0  0  0  0
   -4.3170    2.4807   -0.0019 H   0  0  0  0  0  0  0  0  0  0  0  0
   -0.7831    0.4147   -0.0014 H   0  0  0  0  0  0  0  0  0  0  0  0
   -4.3610    0.7262   -0.0001 H   0  0  0  0  0  0  0  0  0  0  0  0
   -3.5757   -0.8090    0.0009 H   0  0  0  0  0  0  0  0  0  0  0  0
  1  2  1  0
  2  3  2  0
  2  4  1  0
  4  5  1  0
  5  6  2  0
  1  7  1  0
  1  9  1  0
  4  8  1  0
  5 10  1  0
M  END
