none
     RDKit          3D

 10  9  0  0  0  0  0  0  0  0999 V2000
   -3.8465    1.5837   -0.0013 N   0  0  0  0  0  0  0  0  0  0  0  0
   -2.4758   -0.8235    0.0001 C   0  0  0  0  0  0  0  0  0  0  0  0
   -1.8258   -1.8762    0.0004 O   0  0  0  0  0  0  0  0  0  0  0  0
   -3.9405   -0.8042    0.0011 C   0  0  0  0  0  0  0  0  0  0  0  0
   -4.5543    0.4042    0.0003 C   0  0  0  0  0  0  0  0  0  0  0  0
   -4.3170    2.4807   -0.0019 H   0  0  0  0  0  0  0  0  0  0  0  0
   -5.6416    0.5076    0.0009 H   0  0  0  0  0  0  0  0  0  0  0  0
   -2.8475    1.6283   -0.0019 H   0  0  0  0  0  0  0  0  0  0  0  0
   -1.9733    0.1550   -0.0009 H   0  0  0  0  0  0  0  0  0  0  0  0
   -4.4678   -1.7696    0.0025 H   0  0  0  0  0  0  0  0  0  0  0  0
  1  5  1  0
  2  3  2  0
  2  4  1  0
  4  5  2  0
  1  6  1  0
  1  8  1  0
  2  9  1  0
  4 10  1  0
  5  7  1  0
M  END
