none
     RDKit          3D

 11 10  0  0  0  0  0  0  0  0999 V2000
   -3.8465    1.5837   -0.0013 N   0  0  0  0  0  0  0  0  0  0  0  0
   -4.5543    0.4042    0.0003 C   0  0  0  0  0  0  0  0  0  0  0  0
   -3.9405   -0.8042    0.0011 C   0  0  0  0  0  0  0  0  0  0  0  0
   -4.6589   -2.1196    0.0030 C   0  0  0  0  0  0  0  0  0  0  0  0
   -4.3170    2.4807   -0.0019 H   0  0  0  0  0  0  0  0  0  0  0  0
   -5.6416    0.5076    0.0009 H   0  0  0  0  0  0  0  0  0  0  0  0
   -4.3765   -2.7200   -0.8775 H   0  0  0  0  0  0  0  0  0  0  0  0
   -5.7508   -1.9816    0.0033 H   0  0  0  0  0  0  0  0  0  0  0  0
   -4.3758   -2.7179    0.8847 H   0  0  0  0  0  0  0  0  0  0  0  0
   -2.8475    1.6283   -0.0019 H   0  0  0  0  0  0  0  0  0  0  0  0
   -2.8406   -0.8187    0.0003 H   0  0  0  0  0  0  0  0  0  0  0  0
  1  2  1  0
  2  3  2  0
  3  4  1  0
  1  5  1  0
  1 10  1  0
  2  6  1  0
  3 11  1  0
  4  7  1  0
  4  8  1  0
  4  9  1  0
M  END
