12
chgs=0 nmr=1 
     C     21.44700000     27.86900000     16.02600000    0.0121   67.1567
     C     21.32500000     28.81300000     15.00500000    0.0069   66.6879
     C     20.63800000     26.73500000     16.05300000    0.0051   66.5240
     C     20.36900000     28.64800000     14.00100000    0.0207   65.6468
     C     19.67700000     26.53900000     15.05100000    0.0228   67.4667
     C     19.59300000     27.46500000     14.02100000    0.0015   65.8725
     H     21.97400000     29.67600000     14.99200000   -0.0132   24.2553
     H     20.75100000     26.00800000     16.84400000   -0.0133   24.2584
     H     20.22700000     29.39700000     13.23600000   -0.0116   24.0663
     H     19.01600000     25.68500000     15.08000000   -0.0129   24.1405
     H     18.91100000     27.27600000     13.20500000   -0.0126   24.3089
     H     22.20570000     28.00520000     16.81080000   -0.0054   24.0094
