25
chgs=0 nmr=1 
     N     26.84900000     29.65600000      6.21700000   -0.0827  131.6693
     C     26.23500000     30.05800000      7.49700000    0.0007  127.3878
     C     26.88200000     31.42800000      7.86200000   -0.0038   32.7562
     O     27.90600000     31.71100000      7.26400000   -0.2149  -32.8331
     C     26.34400000     29.05000000      8.64500000   -0.1091  144.8831
     C     27.81000000     28.74800000      8.99900000   -0.0446  162.6622
     C     25.49100000     27.77100000      8.28700000    0.0388  168.2297
     C     27.96700000     28.08700000     10.41700000   -0.0261  173.5205
     C     26.10000000     29.25300000      5.20200000    0.1370   38.0790
     O     24.86500000     29.02400000      5.33000000   -0.3025  -76.4858
     N     26.21400000     32.09700000      8.77100000    0.0206  174.2972
     H     27.84300000     29.68800000      6.11500000    0.1209   26.0902
     H     25.16500000     30.24200000      7.32000000    0.0310   26.4416
     H     25.87900000     29.50700000      9.53100000   -0.0146   29.9711
     H     28.22100000     28.06200000      8.24300000    0.0136   30.4425
     H     28.37700000     29.69100000      8.98500000    0.0298   29.8462
     H     25.56300000     27.04000000      9.10600000    0.0164   30.0225
     H     24.43900000     28.06000000      8.14500000    0.0286   29.9838
     H     25.87600000     27.32100000      7.36000000    0.0388   30.3710
     H     29.03100000     27.89400000     10.61600000    0.0316   30.2186
     H     27.56800000     28.76600000     11.18400000    0.0222   30.8535
     H     27.41100000     27.13800000     10.44300000    0.0293   30.1433
     H     25.36900000     31.73600000      9.16600000    0.1251   26.8821
     H     26.64200000     29.08530000      4.25960000   -0.0059   23.2967
     H     26.58310000     32.98270000      9.05280000    0.1199   27.5889
