26
chgs=0 nmr=1 
     N     31.11300000     20.86300000     15.86000000   -0.1085  125.9426
     C     31.28800000     22.20100000     16.41700000    0.0078  138.0472
     C     32.77600000     22.51900000     16.57700000    0.0250   30.1164
     O     33.23300000     23.65900000     16.38400000   -0.2204  -87.2910
     C     30.52000000     22.30000000     17.76400000   -0.0026  168.8466
     N     35.13900000     21.62400000     14.66200000    0.0120  169.7048
     N     33.54800000     21.52600000     16.95000000   -0.0965  138.1782
     C     31.59300000     20.55300000     14.65500000    0.1248   42.0746
     O     32.15900000     21.31100000     13.86100000   -0.2506  -86.9410
     C     35.03100000     21.72200000     17.06900000    0.0278  135.3953
     C     35.61500000     22.19000000     15.75900000   -0.0054   28.5160
     O     36.53200000     23.04600000     15.72400000   -0.2374  -80.3316
     C     35.66700000     20.38300000     17.44700000   -0.0036  170.5872
     H     30.62600000     20.16900000     16.39000000    0.1152   26.9260
     H     30.85300000     22.93800000     15.72600000    0.0481   27.3390
     H     30.88200000     21.52100000     18.45100000    0.0180   30.5185
     H     34.42500000     20.93200000     14.76600000    0.0947   27.3980
     H     33.14600000     20.63400000     17.15600000    0.0886   26.9534
     H     35.24600000     22.46200000     17.85400000    0.0393   27.4101
     H     35.07400000     19.98200000     18.28200000    0.0250   30.5866
     H     35.55700000     19.72700000     16.57100000    0.0134   30.4485
     H     29.45860000     22.11980000     17.53830000    0.0499   29.9611
     H     30.74120000     23.29180000     18.18510000    0.0677   29.4934
     H     35.44610000     21.84260000     13.73580000    0.1225   27.6463
     H     31.45430000     19.49380000     14.39250000   -0.0145   23.5307
     H     36.72140000     20.31800000     17.75370000    0.0596   29.6206
