15
chgs=0 nmr=1 
     C     35.75200000     32.05400000     28.16000000   -0.0620  175.6848
     C     35.61200000     30.57700000     28.04400000    0.0624  148.8905
     N     35.04000000     30.25200000     26.73000000   -0.1495  180.9607
     C     34.33800000     29.10300000     26.65000000   -0.1473   53.1266
     N     34.11000000     28.43700000     27.76800000   -0.0158  199.6180
     N     34.01400000     28.65700000     25.45700000   -0.1889  114.5562
     H     36.76100000     32.34900000     27.83600000    0.0376   29.8713
     H     35.60300000     32.35000000     29.20900000    0.0310   29.9077
     H     36.60000000     30.10400000     28.14300000    0.0293   28.1153
     H     34.94700000     30.20600000     28.83800000    0.0173   28.6227
     H     35.16400000     30.85000000     25.93800000    0.1166   28.7759
     H     33.66800000     27.54100000     27.73500000    0.1096   28.9211
     H     34.38000000     28.82900000     28.64700000    0.0763   27.3597
     H     33.57700000     27.75900000     25.49900000    0.0482   27.8474
     H     35.00670000     32.56240000     27.53060000    0.0352   30.4035
