18
chgs=0 nmr=1 
     C     29.82100000     35.95700000     24.76500000    0.0125  167.3865
     C     28.04900000     35.45400000     23.07100000    0.0192  168.5685
     C     30.05200000     35.04200000     20.00400000    0.1163   37.0297
     O     30.10500000     36.30500000     19.78800000   -0.3215 -100.5989
     N     30.12400000     34.53300000     21.19100000   -0.1022  137.1399
     C     30.47900000     35.36900000     22.37400000    0.1553  143.3973
     C     29.47200000     35.18100000     23.49800000   -0.2123  160.6951
     H     29.05300000     35.77400000     25.53100000    0.0277   30.2390
     H     30.80000000     35.62400000     25.14100000    0.0228   30.2017
     H     29.86200000     37.03200000     24.53700000    0.0274   30.5284
     H     27.37300000     35.30100000     23.92600000    0.0240   30.4970
     H     27.96500000     36.49300000     22.71900000    0.0333   30.5286
     H     27.77200000     34.76700000     22.25700000    0.0151   29.8762
     H     29.93800000     33.55900000     21.31800000    0.1141   27.5516
     H     30.50500000     36.43000000     22.08400000    0.0478   26.6614
     H     29.51300000     34.11600000     23.77100000    0.0007   29.8975
     H     29.86790000     34.38390000     19.14200000   -0.0052   22.9679
     H     31.49760000     35.04020000     22.62760000    0.0252   28.5749
