23
chgs=0 nmr=1 
     N     31.11300000     20.86300000     15.86000000   -0.0205  169.7629
     N     29.59900000     18.59900000      9.82800000   -0.0886  122.5603
     C     30.79600000     19.08300000     10.56600000   -0.0140  137.1089
     C     30.49100000     19.16200000     12.04000000    0.0559   27.9780
     O     29.36700000     19.52300000     12.44100000   -0.2661  -36.7736
     C     31.15500000     20.51500000     10.04800000   -0.0038  168.3056
     N     31.51000000     18.93600000     12.85200000   -0.0645  152.1896
     C     31.39800000     19.06400000     14.28600000    0.0802  146.3770
     C     31.59300000     20.55300000     14.65500000   -0.0129   32.2908
     O     32.15900000     21.31100000     13.86100000   -0.2276  -45.3576
     C     29.25800000     17.31800000      9.98400000    0.1497   39.7124
     O     29.93000000     16.47700000     10.60600000   -0.2832  -89.8520
     H     30.62600000     20.16900000     16.39000000    0.1166   27.3051
     H     29.07000000     19.20900000      9.23800000    0.1180   26.7399
     H     31.64900000     18.41000000     10.39300000    0.0187   27.3852
     H     30.22700000     21.08200000      9.88300000    0.0350   30.2034
     H     31.76900000     21.02800000     10.80200000    0.0550   29.5600
     H     32.38900000     18.66700000     12.45900000    0.1133   26.5880
     H     30.40500000     18.73500000     14.62700000    0.0431   27.4866
     H     31.23290000     21.77950000     16.24150000    0.1211   27.6275
     H     31.71600000     20.45730000      9.10360000    0.0408   29.9478
     H     32.16550000     18.45290000     14.78340000    0.0489   28.5138
     H     28.38130000     16.96630000      9.42040000   -0.0153   23.3160
