25
chgs=0 nmr=1 
     N     30.31000000     25.45800000      5.38400000   -0.0706  145.4185
     C     30.28800000     24.24500000      6.19300000    0.0139  133.6845
     C     29.27900000     23.22700000      5.64100000   -0.0062   28.8391
     O     28.47800000     23.52200000      4.72500000   -0.2423  -47.9421
     C     29.90300000     24.59000000      7.66500000   -0.1552  152.4847
     C     30.86200000     25.49600000      8.38900000    0.0560  168.7259
     C     28.47600000     25.13500000      7.70500000    0.0016  170.9301
     O     31.83800000     21.40200000      7.96800000   -0.2444  329.6773
     N     29.38000000     22.05700000      6.23200000    0.0092  168.8159
     C     31.44000000     26.07900000      5.08000000    0.1211   44.1163
     O     32.57600000     25.80200000      5.46100000   -0.2719  -47.8512
     H     29.44600000     25.83300000      5.04800000    0.1216   26.4537
     H     31.28700000     23.78400000      6.19600000    0.0263   26.7397
     H     29.89100000     23.63600000      8.21200000    0.0046   29.2695
     H     30.49800000     25.67400000      9.41200000    0.0165   30.5230
     H     31.85400000     25.02200000      8.43000000    0.0270   29.8127
     H     30.93500000     26.45400000      7.85400000    0.0273   30.4017
     H     28.20500000     25.37800000      8.74300000    0.0205   30.7845
     H     28.41300000     26.04300000      7.08700000    0.0085   30.6958
     H     27.78300000     24.37600000      7.31300000    0.0367   30.2655
     H     32.26600000     21.18200000      7.14900000    0.1649   31.0511
     H     30.12100000     21.92300000      6.89000000    0.0733   25.5682
     H     31.90470000     20.64400000      8.58560000    0.1747   29.9289
     H     28.75700000     21.29400000      6.05990000    0.1112   27.7298
     H     31.28000000     26.99650000      4.49470000   -0.0243   23.4795
