26
chgs=0 nmr=1 
     C     21.07900000     21.14900000     16.25100000    0.0541  144.0101
     C     20.14200000     21.59000000     15.14900000    0.0208   29.6603
     O     19.49900000     22.64500000     15.32100000   -0.2424  -61.6181
     C     22.08500000     22.25400000     16.58100000   -0.0147  168.5433
     N     20.71700000     22.96400000     12.26000000    0.0137  174.6253
     O     18.57100000     23.61000000     12.28900000   -0.2237  -75.1812
     C     21.46000000     18.73700000     16.16300000    0.1012   45.3272
     O     20.49700000     18.50600000     16.90000000   -0.2599  -81.1360
     N     19.99300000     20.88400000     14.04900000   -0.0726  143.5724
     C     19.06500000     21.35200000     12.99900000   -0.0386  137.8912
     C     19.44200000     22.74500000     12.51000000   -0.0062   31.6370
     C     17.58600000     21.28200000     13.46100000    0.0395  171.9135
     N     21.84600000     19.95400000     15.90500000   -0.1095  130.5826
     H     20.48400000     20.94600000     17.15300000    0.0677   26.4589
     H     22.74300000     22.39600000     15.71100000    0.0063   30.8463
     H     21.52900000     23.18300000     16.77600000    0.0651   29.0911
     H     21.38500000     22.24600000     12.45600000    0.0872   27.3567
     H     20.50600000     20.03400000     13.92400000    0.1043   25.5048
     H     19.16200000     20.67100000     12.14100000    0.0320   28.0782
     H     17.45300000     20.36800000     14.05800000    0.0171   30.8015
     H     17.37700000     22.16200000     14.08700000    0.0651   28.1051
     H     22.72300000     20.07900000     15.44100000    0.1076   27.8583
     H     22.71140000     22.03330000     17.45790000    0.0433   30.1837
     H     21.02970000     23.83380000     11.87830000    0.1214   27.5865
     H     22.14790000     17.94780000     15.82550000   -0.0130   23.4733
     H     16.85880000     21.26470000     12.63590000    0.0344   30.0854
