29
chgs=0 nmr=1 
     C     36.01200000     30.86000000     19.22100000   -0.0085  169.3351
     C     36.08300000     30.19400000     17.87500000   -0.0939   30.4318
     O     35.04800000     29.70200000     17.39300000   -0.2560  -88.1535
     C     40.16800000     30.02600000     19.91800000    0.1305   39.5197
     O     39.26400000     30.66200000     20.52100000   -0.2666 -109.3481
     N     37.22800000     30.12600000     17.23300000   -0.0149  174.2930
     N     40.05900000     28.75800000     19.60700000   -0.2556  114.7104
     C     38.81700000     28.02000000     19.88900000    0.0366  129.7531
     C     38.42100000     28.04800000     21.34100000    0.0008   29.7084
     O     37.21300000     28.03600000     21.70400000   -0.2422  -83.1946
     C     39.09000000     26.62900000     19.32500000    0.0120  157.9570
     C     40.08200000     26.90400000     18.19800000   -0.0339  160.4010
     C     41.03500000     27.90900000     18.87900000    0.1346  140.0336
     N     39.37400000     28.09000000     22.24000000    0.0240  175.1241
     H     35.81700000     31.93400000     19.08500000    0.0458   29.6077
     H     36.97000000     30.72500000     19.74400000    0.0360   28.8401
     H     37.27600000     29.67300000     16.34300000    0.1090   27.9061
     H     38.05100000     30.52700000     17.63500000    0.1073   27.7144
     H     38.00200000     28.46900000     19.30300000    0.0411   27.0220
     H     39.53200000     25.97200000     20.08900000    0.0187   29.8190
     H     38.16800000     26.17200000     18.93700000    0.0551   28.9295
     H     40.61100000     25.98900000     17.89400000    0.0371   29.4827
     H     39.58500000     27.34800000     17.32300000    0.0343   29.7411
     H     41.73000000     27.40700000     19.56800000    0.0367   28.2106
     H     41.60700000     28.49000000     18.14100000    0.0380   27.8007
     H     40.32700000     28.14100000     21.94300000    0.0975   27.2840
     H     35.20410000     30.41700000     19.82190000    0.0551   29.4641
     H     41.10530000     30.55160000     19.68310000   -0.0030   22.9054
     H     39.16500000     28.07190000     23.21770000    0.1244   27.4803
