24
chgs=0 nmr=1 
     C     36.67100000     34.29600000     27.08900000   -0.0492   28.5323
     O     37.30500000     33.23300000     26.79500000   -0.2695  -67.6845
     C     34.71700000     32.76000000     27.28600000    0.0582  160.6095
     C     35.75200000     32.05400000     28.16000000   -0.1156  163.3949
     C     35.61200000     30.57700000     28.04400000    0.1809  153.4304
     N     35.04000000     30.25200000     26.73000000   -0.2739  238.7907
     C     34.23900000     35.35300000     24.97900000    0.1022   45.3881
     O     33.70700000     36.19700000     25.72800000   -0.3036  -52.0898
     N     37.19700000     35.39700000     27.51300000    0.0794  165.8858
     N     34.93000000     34.38400000     25.45100000   -0.0421  123.3604
     C     35.16100000     34.17400000     26.89600000    0.0265  139.6456
     H     33.77000000     32.82600000     27.84100000    0.0193   29.6596
     H     34.56500000     32.17100000     26.37000000   -0.0347   27.8641
     H     36.76100000     32.34900000     27.83600000    0.0818   23.4991
     H     35.60300000     32.35000000     29.20900000   -0.0124   30.7428
     H     36.60000000     30.10400000     28.14300000   -0.0052   27.8961
     H     34.94700000     30.20600000     28.83800000   -0.0104   28.7368
     H     35.16400000     30.85000000     25.93800000    0.0935   31.6904
     H     36.61300000     36.17900000     27.72900000    0.1293   26.6356
     H     35.33500000     33.73400000     24.80800000    0.1132   27.5341
     H     34.63100000     34.92600000     27.50000000    0.0229   26.1105
     H     34.51960000     29.40020000     26.67070000    0.0972   31.3014
     H     34.17030000     35.43990000     23.88460000   -0.0122   23.4999
     H     38.18810000     35.46770000     27.62550000    0.1243   27.2566
