25
chgs=0 nmr=1 
     C     29.82100000     35.95700000     24.76500000   -0.0560  174.8183
     N     32.76300000     35.83100000     23.09000000   -0.0557  121.3239
     C     34.14500000     35.47200000     23.48100000   -0.0250  142.6127
     C     34.23900000     35.35300000     24.97900000   -0.0293   29.3817
     O     33.70700000     36.19700000     25.72800000   -0.2600  -23.7118
     C     35.11400000     36.56400000     22.90700000    0.0238  166.6708
     N     34.93000000     34.38400000     25.45100000    0.0603  170.6935
     C     30.47900000     35.36900000     22.37400000    0.0483  148.0714
     C     31.90100000     34.91000000     22.72800000   -0.0234   30.1755
     O     32.19000000     33.69600000     22.63500000   -0.2792  -44.8195
     C     29.47200000     35.18100000     23.49800000   -0.0535  167.4952
     H     29.05300000     35.77400000     25.53100000    0.0272   30.3170
     H     30.80000000     35.62400000     25.14100000    0.0538   30.0936
     H     29.86200000     37.03200000     24.53700000    0.0133   30.7940
     H     32.48200000     36.79100000     23.10200000    0.1173   26.5137
     H     34.41100000     34.50500000     23.02800000    0.0219   26.9011
     H     34.52600000     37.42200000     22.55000000    0.0298   30.3090
     H     35.80200000     36.89500000     23.69900000    0.0424   29.9067
     H     35.33500000     33.73400000     24.80800000    0.1108   27.3527
     H     30.50500000     36.43000000     22.08400000   -0.0080   29.8480
     H     29.51300000     34.11600000     23.77100000    0.0245   29.6425
     H     35.69410000     36.14600000     22.07110000    0.0434   29.5459
     H     35.08630000     34.24190000     26.42840000    0.1205   27.4853
     H     30.21720000     34.75240000     21.50150000    0.0315   29.0563
     H     28.43580000     35.37980000     23.18710000    0.0213   30.0386
