29
chgs=0 nmr=1 
     N     21.67400000     30.03400000      8.19100000   -0.0700  126.5435
     C     21.41900000     30.25300000      9.62000000   -0.0264  126.7059
     C     22.50400000     31.22800000     10.13600000   -0.0269   36.3661
     O     23.57900000     31.32100000      9.55400000   -0.2216  -43.3372
     C     21.63700000     28.92300000     10.35300000    0.1843  121.1821
     O     20.54400000     28.04700000     10.05900000   -0.2770  301.6081
     C     21.44700000     27.86900000     16.02600000    0.0117   67.1615
     C     21.32500000     28.81300000     15.00500000    0.0048   67.2147
     C     20.63800000     26.73500000     16.05300000    0.0077   65.7601
     C     20.36900000     28.64800000     14.00100000    0.0227   66.2326
     N     22.24100000     31.87300000     11.24100000    0.0254  174.9996
     C     19.59300000     27.46500000     14.02100000    0.0069   64.7984
     C     19.67700000     26.53900000     15.05100000    0.0216   66.8397
     C     21.46600000     30.95300000      7.26100000    0.1439   39.0447
     O     21.06600000     32.11200000      7.53300000   -0.2861  -97.7654
     H     22.02400000     29.14200000      7.90400000    0.0988   27.4200
     H     20.41000000     30.65000000      9.80700000    0.0345   27.1035
     H     22.57800000     28.46500000     10.01500000    0.0211   27.9289
     H     21.68500000     29.10200000     11.43700000    0.0201   27.2114
     H     20.74700000     27.53500000      9.28500000    0.1525   31.3721
     H     21.97400000     29.67600000     14.99200000   -0.0190   24.2937
     H     20.75100000     26.00800000     16.84400000   -0.0106   24.1946
     H     20.22700000     29.39700000     13.23600000   -0.0203   24.0181
     H     21.34100000     31.75600000     11.66200000    0.1094   27.3533
     H     18.91100000     27.27600000     13.20500000   -0.0051   24.1169
     H     19.01600000     25.68500000     15.08000000   -0.0101   24.0747
     H     22.20570000     28.00520000     16.81080000   -0.0031   23.9955
     H     22.90230000     32.47850000     11.68370000    0.1214   27.3848
     H     21.78930000     30.66710000      6.24920000   -0.0105   23.2535
