45
chgs=0 nmr=1 
     N     24.24000000     19.23300000     12.24600000   -0.0345  166.7512
     C     27.81900000     20.60900000      7.31600000    0.1429   44.1530
     O     28.44900000     20.67400000      8.36000000   -0.2403  -92.8740
     C     26.48200000     19.28000000     14.43200000    0.1164   44.4747
     O     25.60900000     19.38800000     15.28700000   -0.2540  -78.0923
     N     26.55900000     20.22000000      7.28800000   -0.2794  119.4716
     C     25.82900000     19.82500000      8.49400000    0.0341  128.7245
     C     26.54100000     18.73200000      9.25100000    0.0346   29.9896
     O     26.33300000     18.53600000     10.45700000   -0.2507  -21.9189
     C     24.46900000     19.33200000      7.95200000    0.0166  157.1834
     C     24.29900000     20.13400000      6.70400000   -0.0311  162.2232
     C     25.71400000     20.10800000      6.07300000    0.1335  139.9277
     N     27.36100000     17.95900000      8.55900000    0.0226  168.3116
     N     26.58500000     20.06300000     13.37800000   -0.1064  132.0418
     C     25.59400000     21.10900000     13.07200000    0.0690  134.9542
     C     24.24100000     20.43600000     12.85700000   -0.0281   34.0489
     O     23.26400000     20.95100000     13.32900000   -0.1864  -56.9148
     C     26.08400000     21.88800000     11.83300000   -0.0243  148.0787
     C     27.42600000     22.61600000     11.90200000   -0.1504  162.6966
     C     27.71800000     23.34100000     10.57800000    0.0059  161.1042
     C     27.38000000     23.72100000     12.95500000    0.0116  165.2958
     H     25.09100000     18.79700000     11.95400000    0.1068   24.3458
     H     25.66900000     20.69300000      9.15000000    0.0467   26.7771
     H     24.49800000     18.25500000      7.73000000    0.0213   29.8129
     H     23.65900000     19.53700000      8.66800000    0.0514   28.9132
     H     23.56000000     19.67000000      6.03400000    0.0381   29.4311
     H     23.98900000     21.16400000      6.93600000    0.0441   29.5234
     H     25.90100000     19.16700000      5.53500000    0.0338   28.1483
     H     25.87000000     20.95700000      5.39100000    0.0437   27.6857
     H     27.51100000     18.13900000      7.58700000    0.1105   26.6128
     H     27.36400000     19.94300000     12.76300000    0.1153   27.0106
     H     25.51600000     21.80500000     13.92000000    0.0240   27.4528
     H     26.14900000     21.16800000     11.00400000    0.0332   29.0667
     H     25.31800000     22.64300000     11.60300000    0.0136   30.3921
     H     28.23400000     21.90500000     12.13000000    0.0041   30.0329
     H     28.68700000     23.85800000     10.64800000    0.0198   30.2777
     H     27.75200000     22.60800000      9.75900000    0.0252   29.8973
     H     26.92400000     24.07600000     10.38000000    0.0075   31.0375
     H     28.35200000     24.23400000     12.99200000    0.0183   30.3566
     H     26.59400000     24.44400000     12.69300000    0.0168   31.0360
     H     27.16100000     23.28100000     13.93900000    0.0311   29.8623
     H     23.35340000     18.79510000     12.09710000    0.1050   28.1824
     H     28.28810000     20.84830000      6.35030000   -0.0077   23.0947
     H     27.25840000     18.50640000     14.52510000   -0.0308   23.3761
     H     27.83170000     17.19550000      9.00120000    0.1267   27.3768
