14
chgs=0 nmr=1 
     C     29.91900000     40.89000000     20.93800000    0.0060  165.2887
     C     29.18300000     39.72200000     21.58100000   -0.1833  164.8025
     C     29.30800000     39.75000000     23.09500000    0.0012  161.5508
     C     27.70000000     39.72100000     21.22800000    0.0034  161.9140
     H     30.99700000     40.68600000     21.01500000    0.0197   30.0900
     H     29.67500000     41.79500000     21.51400000    0.0132   30.8221
     H     29.62800000     38.78600000     21.21200000    0.0123   29.7668
     H     28.76600000     38.89400000     23.52400000    0.0200   30.2135
     H     30.37000000     39.69000000     23.37600000    0.0185   30.1127
     H     28.87900000     40.68700000     23.48100000    0.0178   30.7665
     H     27.20800000     38.86400000     21.71100000    0.0180   30.2690
     H     27.23900000     40.65500000     21.58100000    0.0146   30.6310
     H     27.58300000     39.64300000     20.13700000    0.0186   30.1967
     H     29.69490000     41.09830000     19.88140000    0.0198   30.3630
