16
chgs=0 nmr=1 
     C     30.49100000     19.16200000     12.04000000    0.1191   40.8846
     O     29.36700000     19.52300000     12.44100000   -0.2869  -82.0479
     N     31.51000000     18.93600000     12.85200000   -0.1210  148.6019
     C     31.39800000     19.06400000     14.28600000    0.1567  144.0754
     C     32.49200000     18.19300000     14.99500000   -0.0207  115.8105
     O     33.77800000     18.73900000     14.51600000   -0.2924  272.2157
     C     32.35200000     16.70000000     14.63000000    0.0006  166.9062
     H     32.38900000     18.66700000     12.45900000    0.1190   26.8744
     H     30.40500000     18.73500000     14.62700000    0.0424   27.5981
     H     32.40300000     18.31600000     16.08500000    0.0231   27.0608
     H     34.49400000     18.25400000     14.90900000    0.1541   31.7575
     H     33.13400000     16.12100000     15.14400000    0.0263   30.3730
     H     31.36200000     16.33700000     14.94300000    0.0362   30.2524
     H     32.46000000     16.57700000     13.54200000    0.0202   29.8315
     H     30.71360000     19.10430000     10.96430000   -0.0156   23.3105
     H     31.53670000     20.12320000     14.54850000    0.0388   28.0909
