14
chgs=0 nmr=1 
     C     29.15100000     28.65500000     18.75500000    0.0039  162.5326
     C     30.41600000     28.91200000     17.98000000   -0.1790  165.5351
     C     30.73800000     27.69300000     17.12200000    0.0012  161.7080
     C     30.20500000     30.16800000     17.12900000    0.0041  162.0519
     H     29.23500000     27.64100000     19.17300000    0.0103   30.3096
     H     28.32300000     28.68600000     18.03100000    0.0099   30.7820
     H     31.24500000     29.08800000     18.68100000    0.0132   29.7742
     H     31.66200000     27.87700000     16.55400000    0.0202   30.1789
     H     30.87500000     26.81500000     17.77000000    0.0232   30.2917
     H     29.90900000     27.50700000     16.42300000    0.0167   30.6702
     H     31.11700000     30.37800000     16.55200000    0.0169   30.1998
     H     29.36400000     30.00600000     16.43900000    0.0165   30.8495
     H     29.98200000     31.02200000     17.78500000    0.0224   30.1198
     H     28.87000000     29.31810000     19.58640000    0.0207   30.0964
