16
chgs=0 nmr=1 
     N     19.81000000     29.37800000     18.57800000   -0.1038  135.1743
     C     18.44300000     29.14300000     19.08300000   -0.0527  139.9358
     C     18.45300000     28.94100000     20.59100000   -0.0253   36.0745
     O     17.86000000     27.99400000     21.12800000   -0.2153  -55.0084
     C     17.86400000     27.97700000     18.34600000    0.0496  172.9886
     N     19.17200000     29.80800000     21.24300000    0.0373  176.3285
     C     20.83500000     28.62900000     18.90400000    0.1161   46.2837
     O     20.82100000     27.73400000     19.74900000   -0.2402  -76.4488
     H     19.96200000     30.14700000     17.95600000    0.1126   26.9904
     H     17.83100000     30.03000000     18.86300000    0.0335   28.3041
     H     16.84300000     27.78400000     18.70800000    0.0412   29.8053
     H     17.83500000     28.20100000     17.27000000    0.0061   30.7423
     H     18.48800000     27.08800000     18.51900000    0.0547   29.3818
     H     19.62500000     30.50400000     20.68600000    0.0904   27.4201
     H     19.33040000     29.86800000     22.22850000    0.1172   27.6639
     H     21.75670000     28.93810000     18.38930000   -0.0214   23.7894
