26
chgs=0 nmr=1 
     C     31.28800000     22.20100000     16.41700000    0.0208  145.4062
     C     32.77600000     22.51900000     16.57700000   -0.0599   30.3614
     O     33.23300000     23.65900000     16.38400000   -0.2450  -68.1025
     C     30.52000000     22.30000000     17.76400000   -0.1786  152.4882
     C     29.00600000     22.04300000     17.44200000    0.0106  158.0615
     C     30.83200000     23.69900000     18.35800000    0.0091  171.0928
     C     28.40700000     22.94800000     16.36600000   -0.0593  180.9149
     C     30.73800000     27.69300000     17.12200000   -0.1803  193.8155
     N     33.54800000     21.52600000     16.95000000    0.0190  168.6980
     H     30.85300000     22.93800000     15.72600000    0.0371   29.0836
     H     30.88200000     21.52100000     18.45100000   -0.0005   29.6660
     H     28.90200000     21.00100000     17.10700000    0.0081   30.0280
     H     28.43100000     22.19000000     18.36800000    0.0141   29.8262
     H     30.30700000     23.81600000     19.31800000    0.0149   30.6388
     H     31.91600000     23.79500000     18.51900000    0.0494   29.8126
     H     30.49400000     24.47800000     17.65800000    0.0389   30.0640
     H     27.34900000     22.68900000     16.21600000    0.0271   30.5257
     H     28.48600000     23.99800000     16.68500000    0.0362   30.3887
     H     28.95600000     22.80900000     15.42300000    0.0345   30.2942
     H     31.66200000     27.87700000     16.55400000    0.0505   30.8457
     H     30.87500000     26.81500000     17.77000000    0.0551   30.8413
     H     29.90900000     27.50700000     16.42300000    0.0389   31.0743
     H     33.14600000     20.63400000     17.15600000    0.1041   27.3007
     H     31.15610000     21.19280000     15.99730000    0.0049   29.4947
     H     30.50570000     28.57220000     17.74090000    0.0361   31.1296
     H     34.53630000     21.65660000     17.02930000    0.1141   27.5420
