27
chgs=0 nmr=1 
     N     27.34000000     24.43000000      2.61400000   -0.1464  220.5276
     C     26.26600000     25.41300000      2.84200000   -0.0179  131.7353
     C     26.91300000     26.63900000      3.53100000   -0.0460   33.4535
     O     27.88600000     26.46300000      4.26300000   -0.2347  -40.1753
     C     25.11200000     24.88000000      3.64900000   -0.0001  161.3237
     C     25.35300000     24.86000000      5.13400000   -0.0128  179.5249
     N     26.84900000     29.65600000      6.21700000   -0.0013  164.0482
     N     26.33500000     27.77000000      3.25800000   -0.0376  131.3161
     C     26.85000000     29.02100000      3.89800000   -0.0109  139.1846
     C     26.10000000     29.25300000      5.20200000    0.0322   23.5610
     O     24.86500000     29.02400000      5.33000000   -0.2625  -55.0212
     C     26.73300000     30.14800000      2.90500000    0.0101  172.0827
     H     26.96100000     23.61900000      2.16800000    0.0757   32.1311
     H     28.04300000     24.83400000      2.02900000    0.0832   31.8006
     H     25.88000000     25.74300000      1.86700000   -0.0257   27.9618
     H     24.23300000     25.51000000      3.45100000    0.0074   29.7845
     H     24.90700000     23.85100000      3.31900000    0.0067   30.1833
     H     26.29500000     24.33800000      5.35600000    0.0372   29.8033
     H     25.40300000     25.88800000      5.52200000    0.0433   30.7412
     H     27.84300000     29.68800000      6.11500000    0.1162   27.0141
     H     25.55800000     27.80400000      2.63000000    0.1143   26.7019
     H     27.91400000     28.87800000      4.13600000    0.0219   26.8133
     H     27.50800000     29.99200000      2.14000000    0.0436   30.0223
     H     25.73900000     30.07200000      2.44000000    0.0323   30.2455
     H     24.50780000     24.32480000      5.59140000    0.0145   30.7503
     H     26.43290000     29.92850000      7.08450000    0.1221   27.4487
     H     26.84270000     31.17760000      3.27620000    0.0351   30.1658
