23
chgs=0 nmr=1 
     C     28.10800000     17.43900000     18.27600000   -0.0406  174.8662
     C     24.18400000     16.01600000     16.61900000    0.1563  -11.5813
     C     26.92600000     18.19100000     18.89200000   -0.0866  162.5063
     C     26.62100000     17.79900000     20.35200000   -0.0388  148.5984
     C     26.01000000     16.37000000     20.28000000    0.1090  149.6607
     N     26.97500000     15.52100000     20.94200000   -0.0828  149.4201
     C     27.60300000     14.42300000     20.65500000   -0.0487   51.7168
     N     27.47900000     13.73300000     19.53700000   -0.2409   41.2158
     O     25.30300000     15.89400000     17.15200000   -0.1776 -464.7845
     H     27.85100000     16.37300000     18.19200000    0.0558   28.5634
     H     27.14900000     19.26800000     18.86300000    0.0018   29.8223
     H     26.03200000     17.98500000     18.28500000    0.0179   29.4854
     H     27.54500000     17.79200000     20.94900000    0.0086   30.6487
     H     25.90200000     18.50300000     20.79700000    0.0075   29.2078
     H     25.04200000     16.33600000     20.80100000    0.0097   28.5852
     H     25.87400000     16.05900000     19.23400000    0.0667   26.6933
     H     27.21900000     15.86700000     21.84800000    0.1115   29.3904
     H     28.09800000     12.94800000     19.51000000    0.0751   24.7811
     H     29.02550000     17.55440000     18.87180000    0.0123   30.6798
     H     28.30110000     17.84390000     17.27160000    0.0166   30.2903
     H     23.65580000     16.97670000     16.70810000    0.0313   21.3024
     H     23.65440000     15.22930000     16.06170000    0.0461   20.9592
     H     28.34420000     14.05400000     21.37920000   -0.0102   23.3548
