28
chgs=0 nmr=1 
     C     37.15600000     35.98500000     11.68800000   -0.0602  148.7133
     C     37.19200000     37.36100000     11.03300000    0.0081   31.9117
     O     37.51900000     38.36000000     11.64500000   -0.2111  -33.8929
     O     36.86100000     37.32000000      9.82200000   -0.0288  160.3658
     C     32.99500000     35.88300000      9.93400000   -0.0588  163.0774
     C     33.30600000     34.38100000      9.84000000   -0.0441  164.7088
     C     33.10900000     36.38100000     11.43500000   -0.0658  175.5478
     C     34.53500000     34.02800000     10.72000000   -0.0892  170.0384
     C     39.67600000     35.54700000     12.07200000   -0.0381  173.3515
     C     38.29000000     35.81400000     12.69800000   -0.0595  166.1365
     H     37.25300000     35.21500000     10.90800000    0.0458   29.2527
     H     36.19400000     35.86100000     12.20700000    0.0666   28.8024
     H     36.90400000     38.19400000      9.45200000    0.1568   26.3262
     H     33.82000000     36.38500000      9.40700000    0.0065   30.0750
     H     32.43400000     33.80800000     10.18800000    0.0181   30.1044
     H     33.52200000     34.12000000      8.79300000    0.0178   29.8184
     H     34.05800000     36.03000000     11.86700000    0.0307   29.3093
     H     33.08000000     37.48000000     11.46000000    0.0259   30.4672
     H     32.26900000     35.97900000     12.02000000    0.0295   30.7768
     H     34.74500000     32.95100000     10.64200000    0.0204   30.2250
     H     35.41000000     34.59800000     10.37300000    0.0370   30.1263
     H     34.32100000     34.28500000     11.76800000    0.0358   29.5873
     H     39.91600000     36.39600000     11.41500000    0.0257   30.5638
     H     38.04100000     34.96600000     13.35300000    0.0126   29.8866
     H     38.35600000     36.73400000     13.29800000    0.0362   29.2468
     H     32.08300000     36.17340000      9.39180000    0.0196   29.8629
     H     39.66000000     34.62450000     11.47300000    0.0266   30.6520
     H     40.40520000     35.53240000     12.89540000    0.0356   30.1586
