21
chgs=0 nmr=1 
     C     23.18100000     31.30900000     21.82400000   -0.0084  165.9367
     N     23.14100000     29.18700000     19.24100000   -0.1620  150.1581
     C     22.12600000     29.06200000     18.18300000    0.0642  163.6616
     C     25.03400000     30.17000000     20.40100000    0.0721  140.8415
     C     24.10100000     30.14900000     19.19600000    0.0062   32.9817
     O     24.19600000     30.94800000     18.28700000   -0.2211  -31.0397
     C     24.63900000     31.42600000     21.28600000   -0.2001  153.2974
     C     25.64600000     31.67000000     22.42100000    0.0273  165.0465
     H     22.94200000     32.19400000     22.43200000    0.0271   30.3754
     H     22.48200000     31.24600000     20.97700000    0.0348   30.0122
     H     23.09000000     30.40400000     22.44300000    0.0104   30.9770
     H     23.12400000     28.54900000     20.01100000    0.1103   27.2678
     H     21.95700000     30.04300000     17.71400000    0.0565   27.6427
     H     24.85900000     29.26400000     21.00000000   -0.0160   30.3320
     H     24.67100000     32.30400000     20.62400000    0.0344   29.2954
     H     26.63000000     31.89000000     21.98200000    0.0242   30.1287
     H     25.30900000     32.53200000     23.01600000    0.0227   30.2568
     H     21.20430000     28.75290000     18.69770000    0.0270   29.2008
     H     22.39300000     28.33290000     17.40380000    0.0458   29.0471
     H     26.09140000     30.21680000     20.10160000    0.0298   29.2593
     H     25.73940000     30.79640000     23.08290000    0.0147   30.6093
