8
chgs=0 nmr=1 
     C     31.36300000     28.41000000      1.96200000   -0.0337  172.0687
     C     31.67100000     28.29100000      0.49800000   -0.0122   34.3548
     O     30.86900000     28.62100000     -0.36600000   -0.2245  -65.0286
     O     32.83500000     27.86100000      0.27800000   -0.0464  161.7795
     H     30.27100000     28.49200000      2.06200000    0.0512   29.6389
     H     31.83500000     29.33600000      2.32200000    0.0610   29.4184
     H     32.99100000     27.83300000     -0.65900000    0.1579   26.5188
     H     31.69230000     27.59520000      2.62350000    0.0467   29.4929
