29
chgs=0 nmr=1 
     C     37.15600000     35.98500000     11.68800000   -0.0024  178.0153
     N     40.11700000     31.75000000      9.98800000   -0.1613  126.0071
     C     39.80800000     32.99400000      9.23300000    0.0385  142.1124
     C     39.83700000     34.27100000      9.99500000    0.0462   26.2230
     O     40.16400000     35.32300000      9.34500000   -0.2842  -87.4448
     C     38.61500000     32.80100000      8.32000000   -0.0115  171.5965
     N     41.31700000     34.39300000     13.43200000    0.0016  173.2174
     O     42.26000000     32.03600000      9.38100000   -0.2669 -110.2839
     C     41.39900000     31.33800000      9.96700000    0.1545   39.5972
     N     39.65500000     34.33500000     11.28500000   -0.0638  146.3032
     C     39.67600000     35.54700000     12.07200000    0.0223  137.7767
     C     40.67500000     35.52700000     13.20000000    0.0059   31.4771
     O     40.81400000     36.52800000     13.91100000   -0.2283  -43.3709
     C     38.29000000     35.81400000     12.69800000   -0.0452  156.1645
     H     37.25300000     35.21500000     10.90800000    0.0152   30.4869
     H     36.19400000     35.86100000     12.20700000    0.0288   30.4210
     H     39.41000000     31.24600000     10.48500000    0.1132   26.6724
     H     40.65200000     33.09000000      8.53400000    0.0673   24.8710
     H     38.67800000     33.59500000      7.56100000    0.0580   29.1545
     H     38.75200000     31.82100000      7.83900000    0.0349   30.3544
     H     41.07700000     33.58800000     12.89000000    0.0852   27.1832
     H     39.48700000     33.47600000     11.76900000    0.0863   27.6480
     H     39.91600000     36.39600000     11.41500000    0.0630   26.4076
     H     38.04100000     34.96600000     13.35300000   -0.0038   30.5433
     H     38.35600000     36.73400000     13.29800000    0.0512   28.6886
     H     37.18200000     36.97790000     11.21530000    0.0383   30.3026
     H     37.58130000     32.81660000      8.69570000    0.0260   30.1837
     H     42.03150000     34.30680000     14.12630000    0.1244   27.6933
     H     41.63080000     30.38150000     10.45830000    0.0066   23.1561
