29
chgs=0 nmr=1 
     C     29.60400000     43.50700000     13.39300000   -0.0211   36.4638
     O     29.21900000     43.98100000     12.30100000   -0.2799  -29.0665
     N     30.56300000     42.62300000     13.49500000   -0.0456  137.4338
     C     31.19100000     42.01200000     12.33100000   -0.0131  139.4180
     C     30.45900000     40.66600000     12.13000000   -0.0299   27.5602
     O     30.25300000     39.99100000     13.13300000   -0.2238  -26.0386
     C     32.67200000     41.71700000     12.50500000    0.0324  170.6203
     C     31.42200000     43.94000000     17.55300000    0.0171  170.5928
     C     30.75500000     44.35100000     16.27700000   -0.0619   35.2063
     O     31.20700000     45.26800000     15.56600000   -0.2652  -64.7352
     O     31.73700000     40.25700000     15.82400000   -0.2634  331.3062
     N     30.16300000     40.33800000     10.88600000    0.0117  171.7967
     N     29.72100000     43.67300000     15.88500000   -0.0962  153.3471
     C     28.97800000     43.96000000     14.67800000    0.1682  147.4068
     H     30.87700000     42.35700000     14.40600000    0.1075   25.5651
     H     31.04300000     42.64100000     11.44100000    0.0122   27.1424
     H     33.20000000     42.65600000     12.72600000    0.0503   30.1910
     H     32.80100000     41.01800000     13.34500000    0.0002   30.1345
     H     31.15100000     44.66200000     18.33700000    0.0564   29.3843
     H     32.61800000     40.51000000     15.57300000    0.1492   31.6651
     H     30.35300000     40.96100000     10.12800000    0.1204   27.0214
     H     29.42000000     42.90600000     16.45100000    0.1164   26.6849
     H     27.99600000     43.47100000     14.76400000    0.0435   28.4982
     H     28.84100000     45.05000000     14.61900000    0.0517   27.2977
     H     33.10360000     41.26910000     11.59780000    0.0250   30.2430
     H     31.10650000     42.93780000     17.87880000    0.0102   29.7796
     H     32.51930000     43.92450000     17.47690000    0.0483   29.5768
     H     31.74170000     39.33050000     16.14340000    0.1630   30.2350
     H     29.74210000     39.44470000     10.72810000    0.1164   27.8201
