19
chgs=0 nmr=1 
     N     31.23300000     21.09000000     21.45900000    0.0295  169.1699
     N     27.94200000     22.44800000     21.64800000   -0.0929  125.9732
     C     29.01500000     21.65700000     22.28800000    0.0328  139.4445
     C     29.94200000     21.10600000     21.24000000   -0.0230   31.7295
     O     29.47000000     20.67700000     20.19000000   -0.2345  -39.6889
     C     28.34800000     20.54000000     23.06600000   -0.0561  162.8051
     C     29.24700000     19.45600000     23.70500000   -0.0158  179.2650
     C     27.99400000     23.78100000     21.64300000    0.1272   46.8679
     O     28.90400000     24.44400000     22.09800000   -0.2585  -59.1976
     H     31.54300000     21.39500000     22.36000000    0.1089   27.6895
     H     27.17100000     21.98000000     21.21600000    0.1205   26.8821
     H     29.58400000     22.29400000     22.98200000    0.0145   27.0945
     H     27.77300000     21.00700000     23.87900000    0.0351   29.6774
     H     27.66000000     20.02800000     22.37700000    0.0264   29.8200
     H     29.26900000     18.57400000     23.04800000    0.0433   30.1647
     H     30.26600000     19.85500000     23.81800000    0.0014   30.7756
     H     31.93830000     20.80210000     20.81120000    0.1197   27.3861
     H     28.86580000     19.15900000     24.69320000    0.0370   30.2212
     H     27.14870000     24.31660000     21.18630000   -0.0158   23.4523
