13
chgs=0 nmr=1 
     C     19.63400000     23.88500000     21.53100000   -0.0850  165.6015
     C     18.79100000     24.22100000     20.31300000    0.0466  143.6147
     N     17.44000000     24.65500000     20.82700000   -0.2270  232.1399
     C     19.76200000     25.07700000     22.45500000   -0.0253  179.8249
     H     20.63700000     23.57900000     21.19900000    0.0163   29.7154
     H     19.16000000     23.05700000     22.07800000    0.0111   30.2004
     H     19.25900000     25.03600000     19.74100000    0.0197   29.1824
     H     18.68500000     23.33500000     19.66900000    0.0020   28.2177
     H     16.84800000     24.88700000     20.05500000    0.0863   31.5915
     H     17.02800000     23.91000000     21.35100000    0.0855   32.6629
     H     19.49400000     24.79200000     23.48300000    0.0175   30.3819
     H     19.10600000     25.89300000     22.11700000    0.0382   29.1452
     H     20.81510000     25.39150000     22.40950000    0.0141   30.2059
