34
chgs=0 nmr=1 
     N     31.11300000     20.86300000     15.86000000   -0.1113  139.8141
     C     31.28800000     22.20100000     16.41700000   -0.0095  135.5290
     C     32.77600000     22.51900000     16.57700000   -0.0159   28.3185
     O     33.23300000     23.65900000     16.38400000   -0.2332  -60.0020
     C     30.52000000     22.30000000     17.76400000    0.0263  154.5562
     C     29.00600000     22.04300000     17.44200000   -0.0568  167.4353
     N     27.51000000     17.68900000     15.95400000   -0.0164  158.6792
     C     28.40700000     22.94800000     16.36600000   -0.0503  177.5924
     C     28.37500000     17.99900000     16.88700000    0.1253   39.8208
     O     29.32600000     18.78600000     16.69000000   -0.2751  -48.2008
     C     31.39800000     19.06400000     14.28600000   -0.0126  153.8902
     C     31.59300000     20.55300000     14.65500000   -0.0097   28.4582
     O     32.15900000     21.31100000     13.86100000   -0.2366  -68.0866
     C     32.49200000     18.19300000     14.99500000   -0.0546  172.2442
     N     33.54800000     21.52600000     16.95000000    0.0140  174.2453
     H     30.62600000     20.16900000     16.39000000    0.1239   24.2656
     H     30.85300000     22.93800000     15.72600000    0.0294   27.3119
     H     30.88200000     21.52100000     18.45100000    0.0025   30.0330
     H     28.90200000     21.00100000     17.10700000    0.0188   29.4815
     H     28.43100000     22.19000000     18.36800000    0.0108   30.1104
     H     26.75900000     17.07400000     16.19600000    0.1273   27.2852
     H     27.34900000     22.68900000     16.21600000    0.0176   30.5857
     H     28.48600000     23.99800000     16.68500000    0.0319   30.7062
     H     28.95600000     22.80900000     15.42300000    0.0494   30.0304
     H     30.40500000     18.73500000     14.62700000    0.0014   28.3420
     H     32.40300000     18.31600000     16.08500000    0.0176   30.3961
     H     33.14600000     20.63400000     17.15600000    0.0953   26.9890
     H     30.74120000     23.29180000     18.18510000    0.0324   29.7103
     H     27.55320000     18.02870000     15.01450000    0.1376   26.7687
     H     28.18190000     17.59410000     17.89140000    0.0175   23.4490
     H     31.48330000     18.96650000     13.19370000    0.0192   29.7592
     H     33.44980000     18.59970000     14.63820000    0.0386   29.8530
     H     32.39220000     17.12890000     14.73480000    0.0299   30.2527
     H     34.53630000     21.65660000     17.02930000    0.1150   27.8385
