36
chgs=0 nmr=1 
     N     23.14100000     29.18700000     19.24100000   -0.1281  128.3891
     C     22.12600000     29.06200000     18.18300000    0.0401  130.2807
     C     20.83500000     28.62900000     18.90400000    0.0141   34.1412
     O     20.82100000     27.73400000     19.74900000   -0.2251  -16.8413
     C     22.49400000     28.05700000     17.10900000    0.1549  147.5081
     C     21.44700000     27.86900000     16.02600000   -0.0631   58.6205
     C     21.32500000     28.81300000     15.00500000   -0.0216   67.3774
     C     20.63800000     26.73500000     16.05300000   -0.0057   63.3214
     C     20.36900000     28.64800000     14.00100000    0.0204   64.7274
     C     19.67700000     26.53900000     15.05100000    0.0246   65.5980
     C     19.59300000     27.46500000     14.02100000    0.0084   66.9392
     N     19.81000000     29.37800000     18.57800000   -0.0824  132.3194
     C     18.44300000     29.14300000     19.08300000   -0.0475  139.5973
     C     18.45300000     28.94100000     20.59100000   -0.0259   36.0523
     O     17.86000000     27.99400000     21.12800000   -0.2147  -56.2629
     C     17.86400000     27.97700000     18.34600000    0.0521  173.0853
     N     19.17200000     29.80800000     21.24300000    0.0341  176.7561
     C     24.10100000     30.14900000     19.19600000    0.1380   44.4063
     O     24.19600000     30.94800000     18.28700000   -0.2498  -59.3032
     H     23.12400000     28.54900000     20.01100000    0.1215   26.5265
     H     21.95700000     30.04300000     17.71400000    0.0062   27.2752
     H     23.42500000     28.39400000     16.63000000    0.0323   28.2880
     H     22.66300000     27.08400000     17.59400000    0.0111   28.8064
     H     21.97400000     29.67600000     14.99200000   -0.0149   24.1740
     H     20.75100000     26.00800000     16.84400000   -0.0101   24.3595
     H     20.22700000     29.39700000     13.23600000   -0.0111   24.0385
     H     19.01600000     25.68500000     15.08000000   -0.0097   24.1859
     H     18.91100000     27.27600000     13.20500000   -0.0103   24.4231
     H     19.96200000     30.14700000     17.95600000    0.1203   26.7410
     H     17.83100000     30.03000000     18.86300000    0.0348   28.6298
     H     16.84300000     27.78400000     18.70800000    0.0387   30.1302
     H     17.83500000     28.20100000     17.27000000    0.0185   31.5403
     H     18.48800000     27.08800000     18.51900000    0.0498   29.8040
     H     19.62500000     30.50400000     20.68600000    0.0938   27.5574
     H     19.33040000     29.86800000     22.22850000    0.1166   27.7484
     H     24.77440000     30.16420000     20.06570000   -0.0107   23.4921
