28
chgs=0 nmr=1 
     C     22.65000000     24.51600000     12.17200000   -0.0562  161.8670
     C     22.66200000     24.81900000     13.69900000   -0.0576  162.2083
     C     23.37600000     25.64500000     11.40900000   -0.0588  175.7762
     C     24.12300000     24.98100000     14.19500000   -0.0615  173.5733
     C     26.31000000     30.59400000     14.96700000    0.0087  165.2296
     C     27.39300000     28.44200000     14.22900000   -0.0020  161.7158
     C     26.29000000     29.48000000     13.96000000   -0.1851  165.2392
     C     24.94200000     28.80700000     13.95200000    0.0031  161.0309
     H     23.21600000     23.58600000     12.01300000    0.0127   30.2954
     H     22.10700000     25.74900000     13.89000000    0.0191   30.2835
     H     22.18400000     23.98900000     14.23900000    0.0168   29.8041
     H     24.39600000     25.75900000     11.80600000    0.0324   29.5229
     H     23.42500000     25.39200000     10.34000000    0.0234   30.2915
     H     22.82500000     26.58800000     11.53800000    0.0292   30.8387
     H     24.12300000     25.19500000     15.27400000    0.0240   30.2954
     H     24.68000000     24.05100000     14.00600000    0.0222   30.8591
     H     24.60300000     25.81200000     13.65700000    0.0317   29.4034
     H     27.23500000     31.16400000     14.79900000    0.0161   30.1493
     H     26.34200000     30.12800000     15.96300000    0.0112   30.8287
     H     27.34200000     27.64700000     13.47100000    0.0215   30.2231
     H     28.37700000     28.93200000     14.18100000    0.0208   30.1675
     H     27.24900000     28.00500000     15.22800000    0.0191   30.8035
     H     26.46700000     29.91100000     12.96300000    0.0108   29.7524
     H     24.94200000     27.99400000     13.21100000    0.0291   30.0262
     H     24.73300000     28.39300000     14.95000000    0.0155   30.6002
     H     24.16700000     29.54200000     13.69000000    0.0163   30.1090
     H     21.61880000     24.33800000     11.83300000    0.0182   29.7784
     H     25.48190000     31.31800000     14.97630000    0.0195   30.3513
