27
chgs=0 nmr=1 
     C     30.49100000     19.16200000     12.04000000    0.1087   40.2992
     O     29.36700000     19.52300000     12.44100000   -0.2640  -54.5345
     C     26.48200000     19.28000000     14.43200000    0.1109   44.0851
     O     25.60900000     19.38800000     15.28700000   -0.2830  -60.8453
     N     31.51000000     18.93600000     12.85200000   -0.0313  159.0867
     N     26.58500000     20.06300000     13.37800000   -0.1417  141.5148
     C     25.59400000     21.10900000     13.07200000    0.1590  150.6108
     C     26.08400000     21.88800000     11.83300000   -0.0519  151.0261
     C     27.42600000     22.61600000     11.90200000   -0.1728  164.3610
     C     27.71800000     23.34100000     10.57800000    0.0180  160.1177
     C     27.38000000     23.72100000     12.95500000    0.0035  166.0632
     H     32.38900000     18.66700000     12.45900000    0.1249   27.3143
     H     27.36400000     19.94300000     12.76300000    0.1259   25.5809
     H     25.51600000     21.80500000     13.92000000    0.0248   27.8787
     H     26.14900000     21.16800000     11.00400000    0.0132   29.6915
     H     25.31800000     22.64300000     11.60300000    0.0083   30.4680
     H     28.23400000     21.90500000     12.13000000    0.0186   29.5964
     H     28.68700000     23.85800000     10.64800000    0.0177   30.1817
     H     27.75200000     22.60800000      9.75900000    0.0125   30.3082
     H     26.92400000     24.07600000     10.38000000    0.0150   30.7520
     H     28.35200000     24.23400000     12.99200000    0.0153   30.4135
     H     26.59400000     24.44400000     12.69300000    0.0125   31.1396
     H     27.16100000     23.28100000     13.93900000    0.0297   29.8125
     H     30.71360000     19.10430000     10.96430000    0.0051   23.4715
     H     27.25840000     18.50640000     14.52510000   -0.0379   23.4395
     H     31.43240000     19.02460000     13.84500000    0.1306   27.0210
     H     24.61890000     20.62400000     12.91710000    0.0284   28.2315
