27
chgs=0 nmr=1 
     N     30.31000000     25.45800000      5.38400000   -0.0724  146.2641
     C     30.28800000     24.24500000      6.19300000    0.0068  133.2540
     C     29.27900000     23.22700000      5.64100000    0.0069   28.9984
     O     28.47800000     23.52200000      4.72500000   -0.2347  -52.7195
     C     29.90300000     24.59000000      7.66500000   -0.1693  151.6212
     C     30.86200000     25.49600000      8.38900000    0.0559  168.8905
     C     28.47600000     25.13500000      7.70500000    0.0056  170.2090
     C     27.71800000     23.34100000     10.57800000   -0.1805  191.9574
     N     29.38000000     22.05700000      6.23200000    0.0144  171.2542
     C     31.44000000     26.07900000      5.08000000    0.1224   44.0589
     O     32.57600000     25.80200000      5.46100000   -0.2687  -50.2454
     H     29.44600000     25.83300000      5.04800000    0.1240   26.4764
     H     31.28700000     23.78400000      6.19600000    0.0361   26.7238
     H     29.89100000     23.63600000      8.21200000   -0.0092   29.6730
     H     30.49800000     25.67400000      9.41200000    0.0224   30.4693
     H     31.85400000     25.02200000      8.43000000    0.0250   29.9829
     H     30.93500000     26.45400000      7.85400000    0.0330   30.3640
     H     28.20500000     25.37800000      8.74300000    0.0239   30.5947
     H     28.41300000     26.04300000      7.08700000    0.0101   30.7018
     H     27.78300000     24.37600000      7.31300000    0.0384   30.3835
     H     28.68700000     23.85800000     10.64800000    0.0521   31.0148
     H     27.75200000     22.60800000      9.75900000    0.0399   31.1003
     H     26.92400000     24.07600000     10.38000000    0.0549   30.8898
     H     30.12100000     21.92300000      6.89000000    0.1190   27.2068
     H     27.50910000     22.82230000     11.52530000    0.0436   30.9897
     H     28.75700000     21.29400000      6.05990000    0.1206   27.4035
     H     31.28000000     26.99650000      4.49470000   -0.0206   23.4724
