22
chgs=0 nmr=1 
     N     30.88400000     31.48500000      6.66600000   -0.0757  111.1229
     C     31.67700000     30.27500000      6.63900000   -0.0265  145.5788
     C     31.02200000     29.28800000      5.66500000   -0.0082   30.2042
     O     29.80900000     29.39500000      5.54500000   -0.2285  -15.9583
     C     31.56200000     29.68600000      8.04500000    0.0185  148.5176
     C     32.63100000     29.44400000      9.06000000   -0.0365  168.5281
     C     33.81400000     30.39000000      9.03000000   -0.0250  177.4424
     N     31.83400000     28.41200000      5.12500000    0.0219  176.3165
     C     31.40900000     32.68000000      6.44600000    0.1310   42.2963
     O     32.61900000     32.81200000      6.12500000   -0.3063  -73.2991
     H     29.90500000     31.41600000      6.85800000    0.1197   26.0271
     H     32.72700000     30.46400000      6.36900000    0.0296   26.4995
     H     30.84400000     30.34400000      8.55700000    0.0134   29.3113
     H     31.10600000     28.69700000      7.88900000    0.0207   28.9027
     H     33.02000000     28.42800000      8.89700000    0.0033   29.7797
     H     34.52800000     30.11100000      9.81900000    0.0256   30.2823
     H     34.30900000     30.32700000      8.05000000    0.0268   30.1548
     H     33.46500000     31.41900000      9.19900000    0.0354   30.4313
     H     32.82200000     28.45600000      5.27400000    0.1232   27.0969
     H     32.14020000     29.44760000     10.04440000    0.0203   29.8012
     H     31.42440000     27.69750000      4.55790000    0.1219   27.8100
     H     30.74920000     33.55880000      6.49420000   -0.0045   23.3405
