19
chgs=0 nmr=1 
     C     31.82700000     27.26200000      2.89400000   -0.0025  162.8789
     C     31.36300000     28.41000000      1.96200000   -0.0189  174.4983
     C     31.02200000     29.28800000      5.66500000    0.1172   46.6131
     O     29.80900000     29.39500000      5.54500000   -0.2697  -47.1862
     N     30.31000000     25.45800000      5.38400000   -0.0088  166.2956
     N     31.83400000     28.41200000      5.12500000   -0.0892  130.2575
     C     31.22000000     27.34100000      4.27500000   -0.0254  131.7190
     C     31.44000000     26.07900000      5.08000000    0.0293   30.4819
     O     32.57600000     25.80200000      5.46100000   -0.2325  -16.5377
     H     32.92200000     27.30900000      2.98900000    0.0266   29.7397
     H     31.53900000     26.30300000      2.43900000    0.0217   29.8822
     H     30.27100000     28.49200000      2.06200000    0.0271   30.5538
     H     31.83500000     29.33600000      2.32200000    0.0264   30.1423
     H     29.44600000     25.83300000      5.04800000    0.1232   26.9793
     H     32.82200000     28.45600000      5.27400000    0.1280   26.5678
     H     30.13900000     27.52500000      4.18300000    0.0163   26.7200
     H     31.58880000     28.32280000      0.88900000    0.0346   30.2351
     H     31.49180000     29.99600000      6.36360000   -0.0222   23.5233
     H     30.29490000     24.62620000      5.93880000    0.1188   27.8902
