36
chgs=0 nmr=1 
     C     34.73800000     30.87500000     21.47300000    0.0245  136.6555
     C     33.58900000     30.18900000     22.18100000    0.0236   32.5656
     O     33.58000000     29.00900000     22.49900000   -0.2109  -39.3800
     C     34.87600000     30.23700000     20.06600000   -0.0518  159.6644
     C     36.01200000     30.86000000     19.22100000   -0.0060  175.1569
     N     32.47800000     30.91700000     22.26900000   -0.0182  164.3094
     C     38.42100000     28.04800000     21.34100000    0.1231   37.1013
     O     37.21300000     28.03600000     21.70400000   -0.2712 -101.2938
     N     39.37400000     28.09000000     22.24000000   -0.1354  140.0529
     C     39.06300000     28.06300000     23.69500000    0.1522  144.7863
     C     38.36500000     29.33500000     24.15900000    0.0155   34.9776
     O     37.68400000     29.39000000     25.22100000   -0.2555  -75.7202
     N     38.41900000     30.37300000     23.34100000   -0.1079  133.4686
     C     37.73800000     31.63700000     23.71200000    0.0213  134.3232
     C     36.33400000     31.74200000     23.08700000    0.0283   32.6980
     O     35.57400000     32.61800000     23.48300000   -0.2510  -24.3251
     C     38.52800000     32.85400000     23.18200000   -0.0007  167.6501
     N     36.00000000     30.86000000     22.17200000   -0.0592  147.4311
     H     34.44500000     31.92400000     21.31900000   -0.0100   27.9582
     H     35.08000000     29.16300000     20.18800000    0.0498   28.8998
     H     33.92600000     30.37100000     19.52700000    0.0179   29.8918
     H     35.81700000     31.93400000     19.08500000    0.0239   30.6997
     H     36.97000000     30.72500000     19.74400000   -0.0050   30.5736
     H     32.49800000     31.87600000     21.98800000    0.1077   27.1658
     H     40.32700000     28.14100000     21.94300000    0.1219   26.5852
     H     38.35200000     27.23900000     23.85600000    0.0738   26.8238
     H     38.91700000     30.30600000     22.47600000    0.0996   26.2557
     H     37.65300000     31.71100000     24.80600000    0.0594   26.6035
     H     38.63400000     32.78100000     22.09000000    0.0127   30.7620
     H     37.99600000     33.78200000     23.43800000    0.0580   29.3773
     H     36.65600000     30.13900000     21.94800000    0.1217   25.9650
     H     36.06390000     30.37270000     18.23620000    0.0320   30.3042
     H     31.62410000     30.52410000     22.61040000    0.1146   27.8080
     H     38.71040000     28.02750000     20.27990000    0.0128   22.9530
     H     39.97620000     27.79770000     24.24780000    0.0563   27.9815
     H     39.52240000     32.85400000     23.65240000    0.0323   30.3400
