21
chgs=0 nmr=1 
     C     23.18100000     31.30900000     21.82400000   -0.0036  170.3401
     C     25.77800000     30.43600000     23.35600000   -0.0593  179.7680
     N     23.14100000     29.18700000     19.24100000   -0.0507  161.6163
     C     25.03400000     30.17000000     20.40100000    0.0365  145.9305
     C     24.10100000     30.14900000     19.19600000   -0.0211   32.6505
     O     24.19600000     30.94800000     18.28700000   -0.2052  -43.0984
     C     24.63900000     31.42600000     21.28600000   -0.1708  150.4046
     C     25.64600000     31.67000000     22.42100000    0.0087  156.6075
     H     22.94200000     32.19400000     22.43200000    0.0268   30.5655
     H     22.48200000     31.24600000     20.97700000    0.0341   29.9155
     H     23.09000000     30.40400000     22.44300000    0.0133   30.3999
     H     26.50600000     30.65400000     24.15100000    0.0273   30.5057
     H     24.80000000     30.21100000     23.80600000    0.0251   30.3438
     H     26.12100000     29.56900000     22.77200000    0.0304   30.5960
     H     23.12400000     28.54900000     20.01100000    0.1065   27.3708
     H     24.85900000     29.26400000     21.00000000   -0.0060   29.7782
     H     24.67100000     32.30400000     20.62400000    0.0297   29.1186
     H     26.63000000     31.89000000     21.98200000    0.0156   29.7601
     H     25.30900000     32.53200000     23.01600000    0.0153   29.8782
     H     22.45120000     29.10210000     18.52200000    0.1133   27.9831
     H     26.09140000     30.21680000     20.10160000    0.0340   29.5307
