22
chgs=0 nmr=1 
     N     28.52500000     34.44700000     18.18900000   -0.0740  125.5263
     C     29.80100000     34.14500000     18.82900000    0.0333  143.2318
     C     30.05200000     35.04200000     20.00400000   -0.0280   23.0037
     O     30.10500000     36.30500000     19.78800000   -0.2890  -64.3886
     C     30.92500000     34.30400000     17.75300000   -0.0003  147.8306
     C     32.34500000     34.18300000     18.35800000   -0.0499  167.6934
     C     32.55500000     32.78300000     18.87000000   -0.0328  173.7558
     C     27.47500000     33.65100000     18.30400000    0.1313   41.7537
     O     27.50700000     32.58700000     18.95800000   -0.2931  -69.2646
     N     30.12400000     34.53300000     21.19100000    0.0574  163.0224
     H     28.44200000     35.28300000     17.64600000    0.1202   26.8288
     H     29.80100000     33.10000000     19.17200000    0.0100   26.2718
     H     30.79800000     33.52100000     16.99100000    0.0233   30.0025
     H     30.82500000     35.29300000     17.28200000    0.0226   29.3444
     H     32.46000000     34.90800000     19.17700000    0.0408   29.9485
     H     33.56400000     32.69700000     19.30000000    0.0283   30.1534
     H     31.80600000     32.56000000     19.64400000    0.0076   30.1988
     H     32.44800000     32.06900000     18.04000000    0.0272   30.5085
     H     29.93800000     33.55900000     21.31800000    0.1232   26.7372
     H     33.07160000     34.40330000     17.56200000    0.0215   29.9371
     H     26.54180000     33.99370000     17.83310000   -0.0034   23.4841
     H     30.36200000     35.09350000     21.98420000    0.1239   27.0426
