29
chgs=0 nmr=1 
     C     22.94500000     21.95100000     17.78500000    0.0136   74.6064
     C     24.27200000     21.54400000     17.64400000   -0.0003   66.8096
     C     22.43700000     22.15700000     19.06500000    0.0028   65.7283
     C     25.05200000     21.28500000     18.77600000   -0.0246   83.1872
     C     23.20400000     21.90700000     20.19200000   -0.0089   80.6386
     C     24.51700000     21.47000000     20.03000000    0.1390   41.0909
     O     25.24800000     21.30200000     21.19100000   -0.1717  215.6175
     C     28.10800000     17.43900000     18.27600000   -0.0205  174.9892
     C     26.92600000     18.19100000     18.89200000   -0.1109  156.9503
     C     26.62100000     17.79900000     20.35200000   -0.0229  144.9733
     C     26.01000000     16.37000000     20.28000000    0.1202  142.7450
     N     26.97500000     15.52100000     20.94200000   -0.2849  234.7523
     H     24.69800000     21.42900000     16.65800000   -0.0159   24.5679
     H     21.42600000     22.51800000     19.18200000   -0.0147   24.4418
     H     26.07000000     20.94100000     18.66600000   -0.0442   24.9471
     H     22.79100000     22.04900000     21.18000000   -0.0213   24.7133
     H     26.12400000     21.00400000     20.97400000    0.1629   28.4047
     H     27.85100000     16.37300000     18.19200000    0.0207   29.8809
     H     27.14900000     19.26800000     18.86300000    0.0079   29.3223
     H     26.03200000     17.98500000     18.28500000    0.0313   30.3335
     H     27.54500000     17.79200000     20.94900000    0.0053   30.5105
     H     25.90200000     18.50300000     20.79700000   -0.0013   29.1303
     H     25.04200000     16.33600000     20.80100000    0.0031   27.7517
     H     25.87400000     16.05900000     19.23400000    0.0169   29.1456
     H     27.21900000     15.86700000     21.84800000    0.0901   33.2063
     H     22.31860000     22.17170000     16.90810000   -0.0105   24.5361
     H     29.02550000     17.55440000     18.87180000    0.0222   30.3995
     H     28.30110000     17.84390000     17.27160000    0.0227   30.1448
     H     27.45920000     14.67450000     20.72070000    0.0940   30.6135
