12
chgs=0 nmr=1 
     C     38.52800000     32.85400000     23.18200000   -0.0870  174.9300
     C     39.91900000     32.85400000     23.84000000   -0.0426  160.2222
     C     40.76000000     34.03600000     23.39400000   -0.0568   33.2833
     O     41.97500000     34.00800000     23.62400000   -0.2442  -56.1588
     N     40.14000000     35.00700000     22.77500000    0.0130  172.3787
     H     38.63400000     32.78100000     22.09000000    0.0412   30.3817
     H     37.99600000     33.78200000     23.43800000    0.0281   30.7498
     H     39.79500000     32.89900000     24.93200000    0.0528   29.3013
     H     40.44000000     31.92400000     23.56800000    0.0486   29.2833
     H     40.65400000     35.80100000     22.45000000    0.1142   27.7495
     H     39.15200000     34.95500000     22.62700000    0.0981   26.4282
     H     37.96540000     31.98740000     23.55940000    0.0345   30.0061
