19
chgs=0 nmr=1 
     C     26.91300000     26.63900000      3.53100000    0.1198   46.8321
     O     27.88600000     26.46300000      4.26300000   -0.2777  -51.2804
     N     26.84900000     29.65600000      6.21700000    0.0050  159.9926
     N     26.33500000     27.77000000      3.25800000   -0.0678  125.5890
     C     26.85000000     29.02100000      3.89800000    0.0313  135.3653
     C     26.10000000     29.25300000      5.20200000    0.0025   25.8609
     O     24.86500000     29.02400000      5.33000000   -0.2533  -62.6938
     C     26.73300000     30.14800000      2.90500000   -0.0435  163.8471
     C     26.88200000     31.54600000      3.40900000   -0.0266  178.0569
     H     27.84300000     29.68800000      6.11500000    0.1155   27.0579
     H     25.55800000     27.80400000      2.63000000    0.1217   26.8766
     H     27.91400000     28.87800000      4.13600000    0.0180   26.8727
     H     27.50800000     29.99200000      2.14000000    0.0347   29.6049
     H     25.73900000     30.07200000      2.44000000    0.0215   29.9372
     H     26.08500000     31.75000000      4.13900000    0.0471   30.3097
     H     27.86200000     31.64800000      3.89800000    0.0142   30.5921
     H     26.45330000     25.76780000      3.04140000   -0.0220   23.7262
     H     26.43290000     29.92850000      7.08450000    0.1217   27.3448
     H     26.81290000     32.27680000      2.58970000    0.0377   30.1837
