21
chgs=0 nmr=1 
     C     41.94900000     34.07600000     15.84200000    0.1432   36.8250
     O     42.82900000     34.00000000     16.73900000   -0.2901 -111.2998
     N     40.64200000     33.91600000     16.11200000   -0.1475  130.0292
     C     40.22600000     33.71600000     17.50900000    0.1831  140.2755
     C     38.69300000     34.10600000     17.59500000   -0.2297  146.2976
     C     38.47100000     35.54600000     17.04500000   -0.0312  158.7639
     C     38.14600000     33.93200000     19.02700000    0.0202  171.1777
     C     36.95800000     35.74600000     16.68000000   -0.0303  173.1369
     H     39.96500000     33.93300000     15.37700000    0.1208   27.3886
     H     40.79400000     34.38800000     18.16900000    0.0361   27.8834
     H     38.14400000     33.41300000     16.94100000    0.0092   30.1477
     H     38.76200000     36.27900000     17.81200000    0.0219   30.4689
     H     39.08700000     35.69300000     16.14500000    0.0044   29.3968
     H     37.08200000     34.21100000     19.05000000    0.0259   29.7502
     H     38.25700000     32.88200000     19.33700000    0.0279   30.1859
     H     38.70900000     34.57900000     19.71600000    0.0284   30.7200
     H     36.80500000     36.76400000     16.29200000    0.0313   30.1276
     H     36.66600000     35.01400000     15.91300000    0.0215   30.8132
     H     36.34200000     35.60000000     17.57900000    0.0292   29.9870
     H     42.24370000     34.21960000     14.79200000   -0.0074   23.1115
     H     40.38750000     32.67470000     17.82470000    0.0333   28.3588
