18
chgs=0 nmr=1 
     C     35.23800000     23.38200000     12.92000000    0.1284   41.1535
     O     36.06600000     24.10900000     12.33300000   -0.2813  -88.5711
     N     34.00700000     23.74500000     13.25000000   -0.1256  137.5010
     C     33.53300000     25.09700000     12.97800000    0.1623  140.4920
     C     32.06000000     25.25700000     13.36400000   -0.2319  159.5878
     C     31.68400000     26.74900000     13.34200000    0.0105  165.9685
     C     31.15200000     24.42100000     12.47700000    0.0203  167.3931
     H     33.39700000     23.08600000     13.69000000    0.1177   27.5381
     H     33.61300000     25.28200000     11.89700000    0.0250   28.5391
     H     31.94400000     24.89900000     14.39800000    0.0133   29.9256
     H     30.62600000     26.86500000     13.61900000    0.0265   30.2505
     H     32.31300000     27.29600000     14.06000000    0.0301   30.0996
     H     31.84500000     27.15300000     12.33100000    0.0278   30.4660
     H     30.10600000     24.56300000     12.78500000    0.0305   30.2403
     H     31.27200000     24.73600000     11.43000000    0.0269   30.6971
     H     31.42200000     23.35900000     12.57400000    0.0097   30.0677
     H     35.49140000     22.34750000     13.19500000   -0.0215   23.4928
     H     34.18780000     25.81960000     13.48710000    0.0313   28.1696
