24
chgs=0 nmr=1 
     N     26.84900000     29.65600000      6.21700000   -0.1240  142.2137
     C     26.23500000     30.05800000      7.49700000    0.1132  142.2349
     C     26.34400000     29.05000000      8.64500000   -0.1624  156.4945
     C     27.81000000     28.74800000      8.99900000   -0.0064  169.3697
     C     25.49100000     27.77100000      8.28700000    0.0041  165.5809
     N     21.67400000     30.03400000      8.19100000   -0.0508  163.6440
     C     26.10000000     29.25300000      5.20200000    0.1420   37.0607
     O     24.86500000     29.02400000      5.33000000   -0.3029  -76.1491
     C     21.46600000     30.95300000      7.26100000    0.0900   39.3444
     O     21.06600000     32.11200000      7.53300000   -0.2827  -94.2432
     H     27.84300000     29.68800000      6.11500000    0.1151   26.9897
     H     25.16500000     30.24200000      7.32000000    0.0359   26.7163
     H     25.87900000     29.50700000      9.53100000    0.0194   29.5552
     H     28.22100000     28.06200000      8.24300000    0.0190   30.5093
     H     28.37700000     29.69100000      8.98500000    0.0181   30.4873
     H     25.56300000     27.04000000      9.10600000    0.0205   30.3992
     H     24.43900000     28.06000000      8.14500000    0.0124   30.2151
     H     25.87600000     27.32100000      7.36000000    0.0403   30.2226
     H     22.02400000     29.14200000      7.90400000    0.1267   27.3698
     H     26.69170000     31.02500000      7.75460000    0.0221   28.9057
     H     27.91980000     28.28560000      9.99100000    0.0330   30.1364
     H     21.50030000     30.18320000      9.16440000    0.1149   27.3092
     H     26.64200000     29.08530000      4.25960000   -0.0043   23.2847
     H     21.78930000     30.66710000      6.24920000    0.0070   23.3457
