15
chgs=0 nmr=1 
     C     34.17400000     22.12900000     21.35400000    0.0139   27.7481
     O     35.25200000     22.32200000     21.95800000   -0.0245  157.3328
     O     33.54400000     23.08600000     20.88300000   -0.2356  -84.2346
     C     29.94200000     21.10600000     21.24000000    0.1087   44.8680
     O     29.47000000     20.67700000     20.19000000   -0.2756  -84.0090
     N     31.23300000     21.09000000     21.45900000   -0.1003  142.9768
     C     32.26200000     20.67000000     20.51400000    0.1525  152.3027
     C     33.63800000     20.71600000     21.24200000   -0.1028  157.5054
     H     35.44700000     23.25200000     21.96900000    0.1691   25.4721
     H     31.54300000     21.39500000     22.36000000    0.1083   28.6327
     H     32.31500000     21.45700000     19.74700000    0.0452   27.3126
     H     33.51900000     20.30000000     22.25300000    0.0526   29.5870
     H     34.35900000     20.10600000     20.67800000    0.0623   28.9418
     H     29.26390000     21.50910000     22.00660000   -0.0166   23.2500
     H     32.16500000     19.72420000     19.96070000    0.0429   27.9108
