29
chgs=0 nmr=1 
     C     27.58800000     37.63500000      9.71500000   -0.0491  176.5478
     C     30.45900000     40.66600000     12.13000000    0.1224   45.9992
     N     30.79500000     37.01500000     10.09500000   -0.0848  119.2335
     C     31.72000000     36.28900000      9.17600000   -0.0336  145.0189
     C     30.95500000     35.21100000      8.45900000    0.0060   26.8643
     O     30.25300000     39.99100000     13.13300000   -0.2705  -53.0713
     C     32.99500000     35.88300000      9.93400000    0.0381  173.7528
     O     30.02500000     34.61800000      9.04000000   -0.2522  -52.8017
     N     31.24400000     34.98600000      7.19700000    0.0128  166.0399
     N     30.16300000     40.33800000     10.88600000   -0.0851  133.1850
     C     29.54200000     39.02000000     10.65300000    0.0340  132.3310
     C     30.49400000     38.26100000      9.72900000    0.0316   30.1417
     O     30.84900000     38.85000000      8.70600000   -0.2602   -2.7438
     C     28.11300000     39.04900000     10.01500000    0.0026  158.0618
     H     26.58500000     37.70300000      9.26900000    0.0319   30.3273
     H     28.26800000     37.13300000      9.01200000    0.0551   30.5383
     H     27.53600000     37.05800000     10.65000000    0.0282   30.5771
     H     30.42700000     36.59700000     10.92600000    0.1282   25.6005
     H     32.03600000     37.01200000      8.41000000    0.0301   26.1112
     H     33.82000000     36.38500000      9.40700000    0.0278   29.6743
     H     31.93100000     35.53000000      6.71500000    0.1163   27.0256
     H     30.35300000     40.96100000     10.12800000    0.1223   26.3571
     H     29.47700000     38.47800000     11.60800000    0.0123   26.7312
     H     28.15100000     39.62800000      9.08100000    0.0205   29.7989
     H     30.98010000     41.62410000     12.27310000   -0.0198   23.4979
     H     33.21760000     34.80790000      9.86670000    0.0355   30.1731
     H     33.07410000     36.22850000     10.97530000    0.0430   30.2584
     H     30.74910000     34.24800000      6.73830000    0.1248   27.3767
     H     27.48210000     39.55870000     10.75800000    0.0315   29.8291
