28
chgs=0 nmr=1 
     N     22.04500000     35.45500000     17.17300000   -0.1647  -33.5050
     N     28.52500000     34.44700000     18.18900000    0.0118  167.0123
     C     24.63900000     31.42600000     21.28600000   -0.1401  191.9589
     C     25.69800000     32.87600000     15.66900000    0.1115   45.0676
     O     26.15800000     33.73000000     14.89400000   -0.2929  -58.4652
     N     25.62100000     32.94500000     16.95000000   -0.0438  135.4939
     C     26.17900000     34.12700000     17.65000000   -0.0239  133.5464
     C     27.47500000     33.65100000     18.30400000    0.0327   26.8426
     O     27.50700000     32.58700000     18.95800000   -0.2501  -37.8090
     C     25.21400000     34.56500000     18.78000000    0.1621  156.2080
     C     23.97800000     35.12100000     18.12600000   -0.0825   72.8707
     N     23.85300000     36.43200000     17.78100000   -0.0141  108.6387
     C     22.82400000     34.51400000     17.78200000   -0.0190   69.4876
     C     22.67400000     36.62700000     17.20000000    0.0753   68.7811
     H     28.44200000     35.28300000     17.64600000    0.1131   27.2416
     H     24.67100000     32.30400000     20.62400000    0.0059   30.8767
     H     25.18900000     32.20800000     17.47000000    0.1251   26.5894
     H     26.36900000     34.95900000     16.95600000    0.0158   26.7431
     H     24.95100000     33.70000000     19.40600000    0.0241   28.0060
     H     25.69000000     35.33700000     19.40200000    0.0100   28.8726
     H     24.54200000     37.13900000     17.94000000    0.1010   24.2645
     H     22.56500000     33.48000000     17.95500000   -0.0264   24.6108
     H     22.29600000     37.56400000     16.82000000    0.0187   24.3912
     H     29.39950000     34.24000000     18.62760000    0.1233   27.5097
     H     24.91290000     30.55510000     20.67240000    0.0491   30.6945
     H     25.35980000     31.60060000     22.09840000    0.0506   30.7680
     H     23.60990000     31.34340000     21.66570000    0.0402   30.9374
     H     25.30670000     31.97290000     15.17790000   -0.0126   23.4051
