33
chgs=0 nmr=1 
     C     25.74300000     25.58600000     22.92200000    0.1182   39.2942
     O     25.32500000     24.48900000     23.37800000   -0.3017  -90.8892
     N     26.46500000     25.68900000     21.83300000   -0.1195  140.3101
     C     26.82600000     24.52100000     21.01200000    0.1304  151.7170
     C     27.04300000     24.99200000     19.57100000   -0.0400  154.8618
     C     25.93100000     25.84400000     18.95900000   -0.1743  163.4913
     C     26.20300000     26.08300000     17.47100000    0.0204  162.3196
     C     24.57700000     25.19000000     19.07900000    0.0000  171.0631
     C     22.94500000     21.95100000     17.78500000    0.0152   66.0949
     C     24.27200000     21.54400000     17.64400000   -0.0024   67.3932
     C     22.43700000     22.15700000     19.06500000    0.0040   66.2895
     C     25.05200000     21.28500000     18.77600000    0.0206   70.5633
     C     23.20400000     21.90700000     20.19200000    0.0168   65.0871
     C     24.51700000     21.47000000     20.03000000    0.0021   67.0399
     H     26.78200000     26.59400000     21.54900000    0.1159   27.8587
     H     25.96700000     23.83400000     21.00400000    0.0399   27.5532
     H     27.96900000     25.58500000     19.54900000    0.0115   29.9973
     H     27.16400000     24.09800000     18.94200000    0.0191   30.7584
     H     25.90600000     26.81600000     19.47400000   -0.0066   30.4040
     H     25.39600000     26.69700000     17.04400000    0.0218   30.4770
     H     27.16300000     26.60700000     17.35300000    0.0136   30.4953
     H     26.24600000     25.11700000     16.94600000    0.0197   31.0226
     H     23.81400000     25.84000000     18.62600000    0.0135   31.2754
     H     24.59000000     24.22100000     18.55800000    0.0394   32.9950
     H     24.33900000     25.03100000     20.14100000    0.0381   30.9182
     H     24.69800000     21.42900000     16.65800000   -0.0139   24.2688
     H     21.42600000     22.51800000     19.18200000   -0.0135   24.3342
     H     26.07000000     20.94100000     18.66600000   -0.0145   24.2510
     H     22.79100000     22.04900000     21.18000000   -0.0029   24.0357
     H     25.45900000     26.51300000     23.44170000   -0.0132   23.2116
     H     27.67130000     23.98540000     21.46870000    0.0349   28.5287
     H     22.31860000     22.17170000     16.90810000   -0.0054   23.9343
     H     25.09870000     21.33630000     20.95400000    0.0126   23.7555
