31
chgs=0 nmr=1 
     N     31.11300000     20.86300000     15.86000000   -0.0084  172.3060
     C     30.79600000     19.08300000     10.56600000   -0.0053  157.2095
     C     30.49100000     19.16200000     12.04000000   -0.0014   27.2189
     O     29.36700000     19.52300000     12.44100000   -0.2739  -52.3976
     C     31.15500000     20.51500000     10.04800000   -0.0578  173.1109
     C     35.06400000     20.95700000     12.25500000   -0.1801  192.7220
     N     31.51000000     18.93600000     12.85200000   -0.0608  147.1584
     C     31.39800000     19.06400000     14.28600000    0.0054  128.1446
     C     31.59300000     20.55300000     14.65500000    0.0461   31.2677
     O     32.15900000     21.31100000     13.86100000   -0.2035  -54.1057
     C     32.49200000     18.19300000     14.99500000    0.0423  112.3044
     O     33.77800000     18.73900000     14.51600000   -0.2655  267.9818
     C     32.35200000     16.70000000     14.63000000    0.0361  165.6896
     H     30.62600000     20.16900000     16.39000000    0.1120   27.2019
     H     31.64900000     18.41000000     10.39300000    0.0006   29.5224
     H     30.22700000     21.08200000      9.88300000    0.0428   29.8127
     H     31.76900000     21.02800000     10.80200000    0.0587   29.6794
     H     35.45300000     19.95000000     12.46600000    0.0163   31.3437
     H     33.96400000     20.93800000     12.28200000    0.0748   29.5508
     H     32.38900000     18.66700000     12.45900000    0.1231   25.9562
     H     30.40500000     18.73500000     14.62700000    0.0257   27.5812
     H     32.40300000     18.31600000     16.08500000    0.0020   27.0834
     H     34.49400000     18.25400000     14.90900000    0.1558   31.7986
     H     33.13400000     16.12100000     15.14400000    0.0267   30.3208
     H     31.36200000     16.33700000     14.94300000    0.0292   30.2511
     H     32.46000000     16.57700000     13.54200000    0.0248   29.8345
     H     31.23290000     21.77950000     16.24150000    0.1192   27.6060
     H     29.91060000     18.72500000     10.02010000    0.0328   29.2709
     H     31.71600000     20.45730000      9.10360000    0.0281   30.2404
     H     35.44150000     21.66610000     13.00640000    0.0335   31.1271
     H     35.40590000     21.28740000     11.26310000    0.0206   31.3596
