34
chgs=0 nmr=1 
     C     23.18100000     31.30900000     21.82400000   -0.0070  171.0481
     C     25.77800000     30.43600000     23.35600000   -0.0579  179.4107
     N     23.88000000     26.72700000     23.85100000    0.0214  166.4252
     N     23.14100000     29.18700000     19.24100000   -0.0614  161.4599
     C     20.08300000     28.72900000     23.32100000    0.1252   41.9720
     O     19.99100000     28.58400000     24.56100000   -0.2966  -69.9030
     N     20.80100000     27.93100000     22.57800000   -0.1005  147.0675
     C     21.55000000     26.79600000     23.13300000    0.1130  148.6852
     C     23.04600000     27.08700000     22.91300000   -0.0347   33.1029
     O     23.38300000     27.62700000     21.87000000   -0.2242  -11.8041
     C     25.03400000     30.17000000     20.40100000    0.0298  148.8847
     C     24.10100000     30.14900000     19.19600000   -0.0311   31.6362
     O     24.19600000     30.94800000     18.28700000   -0.2133  -44.8305
     C     24.63900000     31.42600000     21.28600000   -0.1683  150.4883
     C     25.64600000     31.67000000     22.42100000    0.0080  156.2754
     H     22.94200000     32.19400000     22.43200000    0.0196   30.8224
     H     22.48200000     31.24600000     20.97700000    0.0239   30.0837
     H     23.09000000     30.40400000     22.44300000    0.0225   30.3777
     H     26.50600000     30.65400000     24.15100000    0.0197   30.6383
     H     24.80000000     30.21100000     23.80600000    0.0217   30.4010
     H     26.12100000     29.56900000     22.77200000    0.0246   30.5094
     H     23.53200000     26.35300000     24.71100000    0.1266   27.0288
     H     23.12400000     28.54900000     20.01100000    0.0978   25.4788
     H     20.84300000     28.09900000     21.59300000    0.1205   26.7137
     H     21.34400000     26.67500000     24.20700000    0.0420   26.3857
     H     24.85900000     29.26400000     21.00000000    0.0105   28.5660
     H     24.67100000     32.30400000     20.62400000    0.0227   29.1958
     H     26.63000000     31.89000000     21.98200000    0.0124   29.7729
     H     25.30900000     32.53200000     23.01600000    0.0123   29.9244
     H     24.86540000     26.82430000     23.71150000    0.1331   27.2631
     H     22.45120000     29.10210000     18.52200000    0.0998   28.0648
     H     19.58350000     29.57980000     22.83460000    0.0051   23.2758
     H     21.32540000     25.86490000     22.59200000    0.0624   28.5038
     H     26.09140000     30.21680000     20.10160000    0.0204   29.8503
