25
chgs=0 nmr=1 
     N     24.24000000     19.23300000     12.24600000   -0.0339  176.1209
     C     26.48200000     19.28000000     14.43200000    0.1152   44.5725
     O     25.60900000     19.38800000     15.28700000   -0.2428  -87.5167
     N     26.58500000     20.06300000     13.37800000   -0.1115  134.0631
     C     25.59400000     21.10900000     13.07200000    0.0454  135.4728
     C     24.24100000     20.43600000     12.85700000   -0.0016   35.2853
     O     23.26400000     20.95100000     13.32900000   -0.1722  -66.4783
     C     26.08400000     21.88800000     11.83300000    0.0217  147.3115
     C     27.42600000     22.61600000     11.90200000   -0.1610  162.6249
     C     27.71800000     23.34100000     10.57800000    0.0204  160.6176
     C     27.38000000     23.72100000     12.95500000    0.0031  166.0087
     H     25.09100000     18.79700000     11.95400000    0.0984   26.8384
     H     27.36400000     19.94300000     12.76300000    0.1091   27.3428
     H     25.51600000     21.80500000     13.92000000    0.0343   27.3614
     H     26.14900000     21.16800000     11.00400000   -0.0068   29.9628
     H     25.31800000     22.64300000     11.60300000    0.0287   30.0396
     H     28.23400000     21.90500000     12.13000000    0.0009   30.1395
     H     28.68700000     23.85800000     10.64800000    0.0279   29.9975
     H     27.75200000     22.60800000      9.75900000    0.0159   30.2878
     H     26.92400000     24.07600000     10.38000000    0.0250   30.5792
     H     28.35200000     24.23400000     12.99200000    0.0248   30.2581
     H     26.59400000     24.44400000     12.69300000    0.0250   30.9207
     H     27.16100000     23.28100000     13.93900000    0.0346   29.8744
     H     23.35340000     18.79510000     12.09710000    0.1224   28.0472
     H     27.25840000     18.50640000     14.52510000   -0.0227   23.4052
