30
chgs=0 nmr=1 
     C     37.15600000     35.98500000     11.68800000   -0.0496  165.1992
     C     37.19200000     37.36100000     11.03300000   -0.0187   35.2307
     O     37.51900000     38.36000000     11.64500000   -0.2146  -54.7067
     O     36.86100000     37.32000000      9.82200000   -0.0344  161.2821
     C     37.22000000     32.82200000      8.82700000   -0.0973  177.8988
     C     32.99500000     35.88300000      9.93400000   -0.0575  163.5088
     C     33.30600000     34.38100000      9.84000000   -0.0500  163.2218
     C     33.10900000     36.38100000     11.43500000   -0.0626  175.3900
     C     34.53500000     34.02800000     10.72000000   -0.0951  167.1835
     C     36.35100000     33.61300000      7.83800000   -0.0907  179.7499
     H     37.25300000     35.21500000     10.90800000    0.0576   29.1255
     H     36.19400000     35.86100000     12.20700000    0.0708   28.9959
     H     36.90400000     38.19400000      9.45200000    0.1588   26.5699
     H     36.84100000     31.79300000      8.91200000    0.0306   30.3786
     H     37.19200000     33.30600000      9.81400000    0.0326   30.1715
     H     33.82000000     36.38500000      9.40700000    0.0067   30.0288
     H     32.43400000     33.80800000     10.18800000    0.0167   30.0069
     H     33.52200000     34.12000000      8.79300000    0.0263   29.4575
     H     34.05800000     36.03000000     11.86700000    0.0270   29.2768
     H     33.08000000     37.48000000     11.46000000    0.0270   30.3861
     H     32.26900000     35.97900000     12.02000000    0.0300   30.7386
     H     34.74500000     32.95100000     10.64200000    0.0293   30.2402
     H     35.41000000     34.59800000     10.37300000    0.0393   30.0816
     H     34.32100000     34.28500000     11.76800000    0.0322   29.4529
     H     35.32500000     33.67300000      8.23000000    0.0286   29.9585
     H     36.76200000     34.62700000      7.73100000    0.0274   30.3238
     H     37.97230000     35.86190000     12.41500000    0.0516   29.4971
     H     38.25370000     32.80640000      8.45130000    0.0299   30.2615
     H     32.08300000     36.17340000      9.39180000    0.0208   29.8695
     H     36.33000000     33.12780000      6.85100000    0.0272   30.4169
