27
chgs=0 nmr=1 
     C     23.37600000     25.64500000     11.40900000   -0.1845  193.5490
     C     25.49100000     27.77100000      8.28700000   -0.1752  193.0888
     N     21.67400000     30.03400000      8.19100000   -0.0791  127.3243
     C     21.41900000     30.25300000      9.62000000   -0.0043  126.5677
     C     22.50400000     31.22800000     10.13600000   -0.0326   36.7606
     O     23.57900000     31.32100000      9.55400000   -0.2207  -42.9403
     C     21.63700000     28.92300000     10.35300000    0.1600  120.3738
     O     20.54400000     28.04700000     10.05900000   -0.2798  302.1099
     N     22.24100000     31.87300000     11.24100000    0.0291  174.6286
     C     21.46600000     30.95300000      7.26100000    0.1439   38.9989
     O     21.06600000     32.11200000      7.53300000   -0.2854  -98.7771
     H     24.39600000     25.75900000     11.80600000    0.0488   30.9461
     H     23.42500000     25.39200000     10.34000000    0.0401   31.1495
     H     22.82500000     26.58800000     11.53800000    0.0490   30.9107
     H     25.56300000     27.04000000      9.10600000    0.0432   31.0853
     H     24.43900000     28.06000000      8.14500000    0.0248   31.3397
     H     25.87600000     27.32100000      7.36000000    0.0417   30.9958
     H     22.02400000     29.14200000      7.90400000    0.1062   27.3130
     H     20.41000000     30.65000000      9.80700000    0.0355   27.2533
     H     22.57800000     28.46500000     10.01500000    0.0322   27.5714
     H     21.68500000     29.10200000     11.43700000    0.0257   27.5896
     H     20.74700000     27.53500000      9.28500000    0.1529   31.3687
     H     21.34100000     31.75600000     11.66200000    0.1086   27.5556
     H     22.85880000     24.84070000     11.95260000    0.0465   30.9284
     H     26.08540000     28.66230000      8.53650000    0.0622   30.7026
     H     22.90230000     32.47850000     11.68370000    0.1213   27.5016
     H     21.78930000     30.66710000      6.24920000   -0.0102   23.2689
