25
chgs=0 nmr=1 
     N     31.11300000     20.86300000     15.86000000   -0.1065  130.2074
     C     31.28800000     22.20100000     16.41700000    0.0379  132.3814
     C     32.77600000     22.51900000     16.57700000   -0.0229   30.6426
     O     33.23300000     23.65900000     16.38400000   -0.2256  -76.9978
     C     30.52000000     22.30000000     17.76400000   -0.1676  149.5942
     C     29.00600000     22.04300000     17.44200000    0.0056  161.7167
     C     30.83200000     23.69900000     18.35800000    0.0329  173.1994
     C     28.40700000     22.94800000     16.36600000   -0.0574  182.3530
     N     33.54800000     21.52600000     16.95000000    0.0258  172.6386
     C     31.59300000     20.55300000     14.65500000    0.1277   42.4632
     O     32.15900000     21.31100000     13.86100000   -0.2432  -93.1756
     H     30.62600000     20.16900000     16.39000000    0.1158   26.9238
     H     30.85300000     22.93800000     15.72600000    0.0387   27.4165
     H     30.88200000     21.52100000     18.45100000   -0.0038   29.9772
     H     28.90200000     21.00100000     17.10700000   -0.0028   29.8943
     H     28.43100000     22.19000000     18.36800000    0.0227   29.9059
     H     30.30700000     23.81600000     19.31800000    0.0201   30.6717
     H     31.91600000     23.79500000     18.51900000    0.0537   29.8206
     H     30.49400000     24.47800000     17.65800000    0.0372   30.0722
     H     27.34900000     22.68900000     16.21600000    0.0325   30.5094
     H     28.48600000     23.99800000     16.68500000    0.0389   30.3756
     H     28.95600000     22.80900000     15.42300000    0.0495   30.3060
     H     33.14600000     20.63400000     17.15600000    0.0924   27.0278
     H     34.53630000     21.65660000     17.02930000    0.1213   27.5225
     H     31.45430000     19.49380000     14.39250000   -0.0231   23.4844
