15
chgs=0 nmr=1 
     C     34.17400000     22.12900000     21.35400000    0.1519   38.1022
     O     35.25200000     22.32200000     21.95800000   -0.0398  142.8837
     O     33.54400000     23.08600000     20.88300000   -0.2577  -83.8847
     C     34.50900000     26.07700000     19.36000000   -0.0647  170.6197
     C     33.20600000     26.31100000     20.12200000    0.0439  149.6025
     N     33.45500000     25.91000000     21.54600000   -0.2419  228.3111
     H     35.44700000     23.25200000     21.96900000    0.1760   25.1535
     H     34.78800000     25.01600000     19.43700000    0.0120   30.3852
     H     35.30300000     26.69700000     19.80200000    0.0221   30.1935
     H     32.92400000     27.37300000     20.07200000    0.0126   28.9823
     H     32.40100000     25.69700000     19.69200000    0.0034   28.1234
     H     32.62200000     26.04800000     22.08200000    0.0780   31.9288
     H     33.71700000     24.94500000     21.58000000    0.0490   29.7551
     H     33.78490000     21.10330000     21.27270000    0.0392   23.6945
     H     34.38860000     26.34390000     18.29970000    0.0162   30.3972
