28
chgs=0 nmr=1 
     C     30.32000000     16.69800000     19.05100000    0.1312   39.5043
     O     30.19800000     15.65700000     18.36600000   -0.2801 -110.0365
     N     29.34000000     17.59400000     19.07600000   -0.1423  140.6770
     C     28.10800000     17.43900000     18.27600000    0.1279  152.4020
     C     28.34800000     20.54000000     23.06600000   -0.1834  194.8624
     C     26.92600000     18.19100000     18.89200000   -0.1106  156.9758
     C     26.62100000     17.79900000     20.35200000   -0.0520  155.1380
     C     26.01000000     16.37000000     20.28000000    0.1283  148.7218
     N     26.97500000     15.52100000     20.94200000   -0.0913  154.7699
     C     27.60300000     14.42300000     20.65500000   -0.0379   51.7804
     N     27.47900000     13.73300000     19.53700000   -0.2357   35.8152
     H     29.44000000     18.40200000     19.65700000    0.1082   28.0319
     H     27.85100000     16.37300000     18.19200000    0.0678   26.4166
     H     27.77300000     21.00700000     23.87900000    0.0464   30.9945
     H     27.66000000     20.02800000     22.37700000    0.0358   31.1956
     H     27.14900000     19.26800000     18.86300000    0.0142   29.6304
     H     26.03200000     17.98500000     18.28500000    0.0391   29.9486
     H     27.54500000     17.79200000     20.94900000    0.0111   30.1968
     H     25.90200000     18.50300000     20.79700000    0.0282   29.3704
     H     25.04200000     16.33600000     20.80100000    0.0244   28.1245
     H     25.87400000     16.05900000     19.23400000    0.0539   27.6741
     H     27.21900000     15.86700000     21.84800000    0.1145   29.6099
     H     28.09800000     12.94800000     19.51000000    0.0845   24.5785
     H     31.24010000     16.89260000     19.62160000   -0.0111   23.0570
     H     28.30110000     17.84390000     17.27160000    0.0348   28.3901
     H     28.83200000     21.35060000     22.50140000    0.0506   30.8894
     H     28.98750000     19.76900000     23.52050000    0.0480   30.9674
     H     28.34420000     14.05400000     21.37920000   -0.0045   23.5117
