28
chgs=0 nmr=1 
     N     32.76300000     35.83100000     23.09000000   -0.0700  117.0817
     C     34.14500000     35.47200000     23.48100000   -0.0823  139.5824
     C     34.23900000     35.35300000     24.97900000   -0.0475   29.7252
     O     33.70700000     36.19700000     25.72800000   -0.2722  -26.8110
     C     35.11400000     36.56400000     22.90700000    0.0674  148.9346
     C     36.33400000     31.74200000     23.08700000    0.1172   43.2081
     O     35.57400000     32.61800000     23.48300000   -0.2426  -39.3120
     C     35.92600000     35.97900000     21.73700000   -0.0752  166.5504
     C     35.00300000     35.08400000     20.92000000   -0.0061  175.0227
     N     34.93000000     34.38400000     25.45100000    0.0669  164.1359
     C     31.90100000     34.91000000     22.72800000    0.1282   42.5436
     O     32.19000000     33.69600000     22.63500000   -0.3016  -67.8507
     N     36.00000000     30.86000000     22.17200000   -0.0220  162.3757
     H     32.48200000     36.79100000     23.10200000    0.1138   26.8913
     H     34.41100000     34.50500000     23.02800000    0.0774   24.8207
     H     34.52600000     37.42200000     22.55000000    0.0062   30.1354
     H     35.80200000     36.89500000     23.69900000    0.0271   29.1976
     H     36.73600000     35.36100000     22.15200000    0.0091   30.2413
     H     35.56200000     34.65300000     20.07600000    0.0065   30.6964
     H     34.62000000     34.27400000     21.55700000    0.0273   28.3246
     H     34.16100000     35.67900000     20.53700000    0.0147   30.7056
     H     35.33500000     33.73400000     24.80800000    0.0839   23.2056
     H     36.65600000     30.13900000     21.94800000    0.1263   27.4447
     H     37.33660000     31.66700000     23.53330000    0.0032   23.4173
     H     36.36930000     36.78820000     21.13810000    0.0171   29.9671
     H     35.08630000     34.24190000     26.42840000    0.1011   27.7235
     H     30.88240000     35.23880000     22.47440000   -0.0170   23.4458
     H     35.12530000     30.87040000     21.68750000    0.1432   26.7422
