8
chgs=0 nmr=1 
     C     40.37300000     39.81300000     33.94400000   -0.0374  169.0651
     C     40.03100000     39.99200000     35.43200000   -0.0145   30.1456
     O     38.93300000     40.52500000     35.68700000   -0.0202  162.8997
     O     40.86200000     39.57500000     36.25100000   -0.2495  -76.4276
     H     41.10400000     40.57500000     33.63700000    0.0665   29.2470
     H     39.46000000     39.91500000     33.33800000    0.0314   29.7288
     H     38.81400000     40.57100000     36.62800000    0.1605   26.3182
     H     40.80170000     38.80970000     33.80410000    0.0632   29.3443
