13
chgs=0 nmr=1 
     N     41.31700000     34.39300000     13.43200000   -0.1304  150.5281
     C     42.34500000     34.26900000     14.43100000    0.1188  151.3920
     C     41.94900000     34.07600000     15.84200000   -0.0270   30.2535
     O     42.82900000     34.00000000     16.73900000   -0.2592  -58.9067
     N     40.64200000     33.91600000     16.11200000   -0.0167  163.6774
     C     40.67500000     35.52700000     13.20000000    0.1100   42.0834
     O     40.81400000     36.52800000     13.91100000   -0.2588  -96.4783
     H     41.07700000     33.58800000     12.89000000    0.1170   27.3929
     H     42.96700000     33.40700000     14.14900000    0.0542   28.2893
     H     42.95000000     35.18700000     14.38800000    0.0698   27.0259
     H     39.96500000     33.93300000     15.37700000    0.1040   26.3361
     H     40.35930000     33.78010000     17.06150000    0.1252   27.3582
     H     39.94580000     35.54160000     12.37660000   -0.0069   23.1459
