43
chgs=0 nmr=1 
     C     40.16800000     30.02600000     19.91800000    0.1600   38.3907
     O     39.26400000     30.66200000     20.52100000   -0.2831  -86.2446
     N     40.05900000     28.75800000     19.60700000   -0.2576  111.1392
     C     38.81700000     28.02000000     19.88900000    0.0904  129.2564
     C     38.42100000     28.04800000     21.34100000    0.0324   28.7270
     O     37.21300000     28.03600000     21.70400000   -0.2622  -75.9762
     C     39.09000000     26.62900000     19.32500000    0.0056  157.7993
     C     40.08200000     26.90400000     18.19800000   -0.0333  160.6299
     C     41.03500000     27.90900000     18.87900000    0.1337  139.2767
     N     39.37400000     28.09000000     22.24000000   -0.1010  128.9302
     C     39.06300000     28.06300000     23.69500000    0.0444  137.7792
     C     38.36500000     29.33500000     24.15900000    0.0417   29.5104
     O     37.68400000     29.39000000     25.22100000   -0.2675  -53.4712
     C     40.34000000     27.69200000     24.46800000    0.0163  170.7808
     N     38.41900000     30.37300000     23.34100000   -0.1244  130.7776
     C     37.73800000     31.63700000     23.71200000    0.0262  126.9024
     C     36.33400000     31.74200000     23.08700000   -0.0116   32.3399
     O     35.57400000     32.61800000     23.48300000   -0.2383  -23.3580
     C     38.52800000     32.85400000     23.18200000   -0.0447  160.6880
     C     39.91900000     32.85400000     23.84000000    0.0041  173.9315
     N     36.00000000     30.86000000     22.17200000    0.0159  169.0752
     H     38.00200000     28.46900000     19.30300000    0.0383   27.2373
     H     39.53200000     25.97200000     20.08900000    0.0217   29.7327
     H     38.16800000     26.17200000     18.93700000    0.0546   28.8836
     H     40.61100000     25.98900000     17.89400000    0.0422   29.3637
     H     39.58500000     27.34800000     17.32300000    0.0462   29.5659
     H     41.73000000     27.40700000     19.56800000    0.0416   28.0969
     H     41.60700000     28.49000000     18.14100000    0.0468   27.6189
     H     40.32700000     28.14100000     21.94300000    0.1095   26.9622
     H     38.35200000     27.23900000     23.85600000    0.0532   26.9337
     H     40.25700000     26.64900000     24.80900000    0.0478   29.3979
     H     41.20300000     27.79000000     23.79400000    0.0063   31.0356
     H     38.91700000     30.30600000     22.47600000    0.1251   24.8978
     H     37.65300000     31.71100000     24.80600000    0.0436   27.0630
     H     38.63400000     32.78100000     22.09000000    0.0215   29.5509
     H     37.99600000     33.78200000     23.43800000    0.0378   29.2847
     H     39.79500000     32.89900000     24.93200000    0.0231   30.6659
     H     40.44000000     31.92400000     23.56800000   -0.0060   30.4919
     H     36.65600000     30.13900000     21.94800000    0.1024   26.2224
     H     41.10530000     30.55160000     19.68310000    0.0107   22.9968
     H     40.49880000     28.33940000     25.34300000    0.0570   29.5916
     H     40.52860000     33.71070000     23.51670000    0.0211   30.4650
     H     35.12530000     30.87040000     21.68750000    0.1083   27.8820
