27
chgs=0 nmr=1 
     O     15.44000000     21.81900000     12.37800000   -0.2513  -94.9621
     C     20.14200000     21.59000000     15.14900000    0.1317   40.0949
     O     19.49900000     22.64500000     15.32100000   -0.2589 -115.7264
     N     20.71700000     22.96400000     12.26000000   -0.0829  145.7312
     C     21.18400000     24.26300000     11.69000000    0.1517  142.0964
     C     21.11000000     24.11100000     10.17300000   -0.0525   28.2725
     O     21.84100000     23.19800000      9.68600000   -0.2837  -61.6408
     N     19.99300000     20.88400000     14.04900000   -0.0928  141.2656
     C     19.06500000     21.35200000     12.99900000   -0.0648  132.3475
     C     19.44200000     22.74500000     12.51000000    0.0626   34.0329
     O     18.57100000     23.61000000     12.28900000   -0.2378  -59.8013
     C     17.58600000     21.28200000     13.46100000    0.1194  152.4047
     C     16.57600000     21.25800000     12.31500000   -0.0207   28.4188
     N     20.29100000     24.87500000      9.50700000    0.0375  164.6669
     N     16.92400000     20.58600000     11.21600000   -0.0157  167.7638
     H     21.38500000     22.24600000     12.45600000    0.1009   26.2140
     H     20.53700000     25.08800000     12.02200000    0.0280   27.2666
     H     20.50600000     20.03400000     13.92400000    0.1141   26.5047
     H     19.16200000     20.67100000     12.14100000    0.0106   28.3927
     H     17.45300000     20.36800000     14.05800000    0.0319   29.6599
     H     17.37700000     22.16200000     14.08700000    0.0656   27.0242
     H     19.77500000     25.56800000     10.01100000    0.1258   26.8028
     H     16.29000000     20.52600000     10.44500000    0.1201   27.4211
     H     17.81900000     20.14300000     11.16300000    0.0879   27.1304
     H     20.82360000     21.26920000     15.95060000    0.0040   22.9493
     H     22.21520000     24.44100000     12.02900000    0.0458   28.3134
     H     20.15030000     24.80670000      8.51930000    0.1234   27.4058
