31
chgs=0 nmr=1 
     C     21.86100000     31.34200000      3.47400000   -0.0437  172.8264
     C     24.62000000     34.77800000      4.85300000    0.0117   68.8809
     N     22.09900000     29.16300000      5.60500000   -0.1099  143.9436
     N     21.67400000     30.03400000      8.19100000    0.0152  166.8112
     C     21.46600000     30.95300000      7.26100000    0.0309   31.1392
     C     21.02300000     31.22300000      4.78400000   -0.0266  167.3758
     C     21.12700000     28.24000000      5.57400000    0.1264   45.4282
     O     19.95800000     28.46500000      5.84200000   -0.2311  -90.6456
     C     24.14700000     33.96600000      7.03800000    0.0062   66.7168
     C     23.81200000     34.03100000      5.67700000    0.0109   68.5461
     C     25.28800000     34.60900000      7.49900000    0.0046   65.4132
     C     21.90700000     30.56300000      5.88100000   -0.0426  128.9950
     C     26.13600000     35.34600000      6.64000000    0.0048   62.6450
     O     21.06600000     32.11200000      7.53300000   -0.2491  -37.0408
     C     25.81000000     35.39200000      5.26700000    0.0139   65.3831
     H     22.03900000     32.40600000      3.26000000    0.0405   29.4449
     H     22.82400000     30.83100000      3.61900000    0.0057   30.8215
     H     24.31900000     34.89900000      3.82300000   -0.0190   24.4290
     H     23.03200000     28.85400000      5.42200000    0.1205   26.8941
     H     22.02400000     29.14200000      7.90400000    0.1002   26.2988
     H     20.13500000     30.60100000      4.60000000    0.0473   28.7257
     H     20.70800000     32.22400000      5.11400000    0.0536   28.2672
     H     23.51900000     33.41800000      7.72500000   -0.0029   24.1679
     H     22.94800000     33.51100000      5.29000000   -0.0151   23.9772
     H     22.89500000     31.02900000      5.75500000    0.0439   28.2388
     H     27.00600000     35.85800000      7.02300000   -0.0128   24.0899
     H     26.45800000     35.88500000      4.55700000   -0.0133   24.1187
     H     21.34160000     30.88810000      2.61710000    0.0304   29.9863
     H     21.50030000     30.18320000      9.16440000    0.1203   27.2979
     H     21.50810000     27.23660000      5.33340000   -0.0132   23.5840
     H     25.58500000     34.52800000      8.55500000   -0.0075   24.0411
