44
chgs=0 nmr=1 
     C     36.08300000     30.19400000     17.87500000    0.0927   37.9868
     O     35.04800000     29.70200000     17.39300000   -0.2794  -63.4560
     N     37.22800000     30.12600000     17.23300000   -0.0418  155.9195
     C     40.16800000     30.02600000     19.91800000    0.1351   40.1656
     O     39.26400000     30.66200000     20.52100000   -0.3041 -101.6987
     C     34.44100000     26.09900000     13.68400000    0.1315   42.4967
     C     38.81700000     28.02000000     19.88900000    0.1639  144.4891
     O     34.88300000     27.09000000     13.09300000   -0.2501  -95.0123
     N     40.05900000     28.75800000     19.60700000   -0.2721  123.6308
     C     39.09000000     26.62900000     19.32500000   -0.0864  163.0602
     C     40.08200000     26.90400000     18.19800000   -0.0771  161.6204
     C     41.03500000     27.90900000     18.87900000    0.1526  140.9022
     N     34.73400000     25.82200000     14.94900000   -0.1143  129.1767
     C     35.59600000     26.71500000     15.73600000    0.0486  131.8264
     C     36.97500000     26.82600000     15.10700000    0.0241   23.3659
     O     37.57900000     27.92600000     15.15900000   -0.2670  -32.2777
     C     35.71500000     26.20300000     17.17200000   -0.0666  146.8052
     C     34.34300000     26.44500000     17.89800000   -0.0547  162.0391
     C     34.50900000     26.07700000     19.36000000   -0.0100  172.1436
     N     37.49900000     25.74300000     14.57100000    0.0212  173.6093
     H     37.27600000     29.67300000     16.34300000    0.1262   24.8014
     H     38.05100000     30.52700000     17.63500000    0.1203   27.3998
     H     38.00200000     28.46900000     19.30300000    0.0253   27.8986
     H     39.53200000     25.97200000     20.08900000    0.0266   29.8439
     H     38.16800000     26.17200000     18.93700000    0.0264   29.3518
     H     40.61100000     25.98900000     17.89400000    0.0245   29.7806
     H     39.58500000     27.34800000     17.32300000    0.0500   29.6064
     H     41.73000000     27.40700000     19.56800000    0.0350   28.3666
     H     41.60700000     28.49000000     18.14100000    0.0356   27.8992
     H     34.36300000     24.99500000     15.37200000    0.1095   27.1981
     H     35.14500000     27.71800000     15.76300000    0.0513   26.2416
     H     35.94800000     25.12800000     17.16500000   -0.0050   30.3726
     H     36.51400000     26.74800000     17.69600000    0.0572   29.6798
     H     34.05700000     27.50400000     17.81100000    0.0603   28.9315
     H     33.56400000     25.81600000     17.44200000   -0.0000   30.1155
     H     34.78800000     25.01600000     19.43700000    0.0104   30.6310
     H     35.30300000     26.69700000     19.80200000    0.0259   30.5083
     H     36.99800000     24.88000000     14.63700000    0.1001   27.0209
     H     36.03110000     30.68130000     18.85980000    0.0066   23.1423
     H     41.10530000     30.55160000     19.68310000   -0.0121   22.9431
     H     33.78620000     25.37640000     13.17490000   -0.0154   23.3475
     H     38.52760000     28.04050000     20.95010000    0.0419   27.9601
     H     33.57070000     26.24550000     19.90870000    0.0311   30.0720
     H     38.38120000     25.75530000     14.10030000    0.1221   27.5744
