23
chgs=0 nmr=1 
     N     31.69700000     18.31100000     20.40600000   -0.1102  157.2264
     C     31.56800000     16.96200000     19.82500000    0.1450  147.9890
     C     30.32000000     16.69800000     19.05100000   -0.0565   32.0558
     O     30.19800000     15.65700000     18.36600000   -0.2606  -57.9240
     C     29.94200000     21.10600000     21.24000000    0.1128   42.7716
     O     29.47000000     20.67700000     20.19000000   -0.2673  -68.6280
     N     29.34000000     17.59400000     19.07600000    0.0007  160.4147
     N     31.23300000     21.09000000     21.45900000   -0.0664  134.0140
     C     32.26200000     20.67000000     20.51400000    0.0185  139.5932
     C     32.12800000     19.36400000     19.75000000    0.0250   29.9159
     O     32.54600000     19.31700000     18.55800000   -0.2548  -66.1516
     C     33.63800000     20.71600000     21.24200000   -0.0349  166.7198
     H     31.43900000     18.43200000     21.36400000    0.1078   27.1291
     H     32.42200000     16.80400000     19.15000000    0.0678   26.9398
     H     31.61200000     16.23500000     20.64900000    0.0493   28.3816
     H     29.44000000     18.40200000     19.65700000    0.0988   26.1525
     H     31.54300000     21.39500000     22.36000000    0.1122   27.6722
     H     32.31500000     21.45700000     19.74700000    0.0495   27.0867
     H     33.51900000     20.30000000     22.25300000    0.0219   30.6886
     H     34.35900000     20.10600000     20.67800000    0.0648   29.6995
     H     29.26390000     21.50910000     22.00660000    0.0013   23.1308
     H     28.50590000     17.48910000     18.53440000    0.1222   27.2860
     H     34.02710000     21.74170000     21.32330000    0.0528   29.6095
