26
chgs=0 nmr=1 
     C     24.62000000     34.77800000      4.85300000    0.0161   69.8249
     N     28.26000000     33.94300000     11.09600000    0.0039  170.4738
     C     26.88200000     31.42800000      7.86200000    0.1238   48.3130
     O     27.90600000     31.71100000      7.26400000   -0.2598  -42.2314
     N     26.21400000     32.09700000      8.77100000   -0.0858  131.4764
     C     26.77200000     33.43600000      9.19700000    0.0063  134.3684
     C     27.15100000     33.36200000     10.65000000    0.0276   26.7113
     O     26.35000000     32.77800000     11.39500000   -0.2506  -59.8139
     C     25.69500000     34.49800000      8.94600000    0.1019  144.6528
     C     25.28800000     34.60900000      7.49900000   -0.0077   56.1359
     C     24.14700000     33.96600000      7.03800000   -0.0092   65.5120
     C     26.13600000     35.34600000      6.64000000    0.0082   61.3949
     C     23.81200000     34.03100000      5.67700000    0.0267   68.5317
     C     25.81000000     35.39200000      5.26700000    0.0262   63.5060
     H     24.31900000     34.89900000      3.82300000   -0.0136   24.5821
     H     28.87600000     34.37900000     10.44000000    0.1155   27.1332
     H     25.36900000     31.73600000      9.16600000    0.1247   26.5192
     H     27.66100000     33.67200000      8.59400000    0.0160   26.4691
     H     24.80600000     34.23900000      9.53900000    0.0126   28.8989
     H     26.08400000     35.47300000      9.27400000    0.0108   28.5565
     H     23.51900000     33.41800000      7.72500000   -0.0344   24.5337
     H     27.00600000     35.85800000      7.02300000   -0.0283   24.1202
     H     22.94800000     33.51100000      5.29000000   -0.0151   24.2626
     H     26.45800000     35.88500000      4.55700000   -0.0115   24.0717
     H     28.49810000     33.95820000     12.06710000    0.1249   27.4257
     H     26.42530000     30.46100000      7.60440000   -0.0290   24.0088
