31
chgs=0 nmr=1 
     N     29.59900000     18.59900000      9.82800000    0.0141  150.9293
     C     27.81900000     20.60900000      7.31600000    0.1647   43.7208
     O     28.44900000     20.67400000      8.36000000   -0.2606  -62.9471
     N     26.55900000     20.22000000      7.28800000   -0.2746  114.8200
     C     25.82900000     19.82500000      8.49400000    0.0782  128.1923
     C     26.54100000     18.73200000      9.25100000    0.0249   32.8489
     O     26.33300000     18.53600000     10.45700000   -0.2352  -58.5630
     C     24.46900000     19.33200000      7.95200000    0.0185  156.5434
     C     24.29900000     20.13400000      6.70400000   -0.0313  162.1602
     C     25.71400000     20.10800000      6.07300000    0.1353  139.4114
     N     27.36100000     17.95900000      8.55900000   -0.1255  153.5683
     C     28.05400000     16.83500000      9.21000000    0.0502  135.3196
     C     29.25800000     17.31800000      9.98400000   -0.0147   26.5576
     O     29.93000000     16.47700000     10.60600000   -0.2578  -26.5347
     C     28.52300000     15.82000000      8.18200000    0.1755  125.9808
     O     28.94600000     16.44500000      6.96700000   -0.2979  319.5114
     H     29.07000000     19.20900000      9.23800000    0.0984   23.7195
     H     25.66900000     20.69300000      9.15000000    0.0413   27.3098
     H     24.49800000     18.25500000      7.73000000    0.0206   29.7488
     H     23.65900000     19.53700000      8.66800000    0.0494   28.9032
     H     23.56000000     19.67000000      6.03400000    0.0348   29.4363
     H     23.98900000     21.16400000      6.93600000    0.0378   29.5517
     H     25.90100000     19.16700000      5.53500000    0.0405   28.0318
     H     25.87000000     20.95700000      5.39100000    0.0401   27.6931
     H     27.51100000     18.13900000      7.58700000    0.1117   25.7214
     H     27.36300000     16.33700000      9.90600000    0.0517   27.4160
     H     29.36700000     15.25300000      8.60200000    0.0337   26.7028
     H     27.69400000     15.13200000      7.95800000    0.0021   27.6206
     H     29.23100000     15.78000000      6.35100000    0.1628   32.2214
     H     30.40390000     18.92440000     10.32420000    0.1141   27.4073
     H     28.28810000     20.84830000      6.35030000   -0.0029   23.2308
