20
chgs=0 nmr=1 
     C     40.76000000     34.03600000     23.39400000    0.0700   44.1746
     O     41.97500000     34.00800000     23.62400000   -0.2646  -80.5036
     N     40.14000000     35.00700000     22.77500000   -0.0179  157.2580
     C     39.08000000     36.94100000     27.40600000    0.0057  165.4824
     C     39.50200000     37.34000000     26.00200000   -0.1889  165.9223
     C     38.68400000     36.64700000     24.92300000    0.0118  155.6053
     C     39.33700000     38.85400000     25.86200000   -0.0055  159.7107
     H     40.65400000     35.80100000     22.45000000    0.1221   27.3426
     H     39.15200000     34.95500000     22.62700000    0.1221   27.6827
     H     38.22400000     37.57700000     27.67600000    0.0119   30.8404
     H     39.92700000     37.16400000     28.07100000    0.0244   29.9550
     H     40.56300000     37.08500000     25.86300000    0.0239   29.5866
     H     39.03200000     36.97300000     23.93200000   -0.0046   30.4408
     H     38.80500000     35.55700000     25.01400000    0.0160   30.1557
     H     37.62200000     36.90900000     25.04300000    0.0111   30.3755
     H     39.63800000     39.16400000     24.85000000    0.0152   30.3227
     H     38.28400000     39.12500000     26.03100000    0.0205   30.8312
     H     39.97000000     39.36200000     26.60500000    0.0245   30.0277
     H     40.15040000     33.17930000     23.71730000   -0.0171   23.3976
     H     38.78220000     35.90080000     27.60410000    0.0191   30.4759
