36
chgs=0 nmr=1 
     N     27.34000000     24.43000000      2.61400000   -0.0964  207.3402
     C     26.26600000     25.41300000      2.84200000   -0.0434  132.3487
     C     26.91300000     26.63900000      3.53100000   -0.1008   32.0361
     O     27.88600000     26.46300000      4.26300000   -0.1992  -45.3940
     C     25.11200000     24.88000000      3.64900000    0.0680  157.5282
     C     25.35300000     24.86000000      5.13400000   -0.1264  149.7566
     S     23.93000000     23.95900000      5.90400000   -0.1416  582.7577
     C     24.44700000     23.98400000      7.62000000   -0.1130  170.2487
     C     30.28800000     24.24500000      6.19300000    0.0158  149.8347
     C     29.27900000     23.22700000      5.64100000   -0.0728   29.3305
     O     28.47800000     23.52200000      4.72500000   -0.1826 -100.7560
     C     29.90300000     24.59000000      7.66500000   -0.0926  161.4101
     C     28.47600000     25.13500000      7.70500000   -0.0424  173.9208
     N     26.33500000     27.77000000      3.25800000    0.0469  174.2586
     N     29.38000000     22.05700000      6.23200000    0.0036  173.6982
     H     26.96100000     23.61900000      2.16800000    0.0669   31.8627
     H     28.04300000     24.83400000      2.02900000    0.0746   31.6564
     H     25.88000000     25.74300000      1.86700000   -0.0272   27.5006
     H     24.23300000     25.51000000      3.45100000    0.0013   29.8309
     H     24.90700000     23.85100000      3.31900000    0.0179   29.9155
     H     26.29500000     24.33800000      5.35600000    0.0995   27.8459
     H     25.40300000     25.88800000      5.52200000    0.0527   29.5310
     H     23.69300000     23.47500000      8.23800000    0.0612   29.7824
     H     25.41300000     23.46700000      7.71900000    0.0663   29.2079
     H     24.55300000     25.02600000      7.95600000    0.0607   29.3755
     H     31.28700000     23.78400000      6.19600000    0.0119   29.2377
     H     29.89100000     23.63600000      8.21200000   -0.0103   30.0520
     H     28.20500000     25.37800000      8.74300000    0.0098   30.5734
     H     28.41300000     26.04300000      7.08700000    0.0455   30.0534
     H     27.78300000     24.37600000      7.31300000    0.0511   30.1658
     H     25.55800000     27.80400000      2.63000000    0.1082   27.0957
     H     30.12100000     21.92300000      6.89000000    0.1062   27.1953
     H     30.30460000     25.16000000      5.58270000    0.0439   28.9425
     H     30.60400000     25.25220000      8.19420000    0.0207   29.6477
     H     26.67910000     28.60590000      3.68560000    0.1085   27.6630
     H     28.75700000     21.29400000      6.05990000    0.1077   27.7729
