16
chgs=0 nmr=1 
     N     37.63300000     26.54300000     11.86700000    0.0072  172.3510
     C     36.97500000     26.82600000     15.10700000    0.1224   39.4855
     O     37.57900000     27.92600000     15.15900000   -0.2691 -117.6927
     N     37.49900000     25.74300000     14.57100000   -0.0935  134.0537
     C     38.79400000     25.76100000     13.88000000    0.0101  138.5589
     C     38.72800000     26.59100000     12.61100000   -0.0025   22.3454
     O     39.70400000     27.34600000     12.27700000   -0.2590 -109.7147
     C     39.28500000     24.33600000     13.56600000   -0.0065  170.7515
     H     36.89700000     25.91700000     12.12400000    0.0915   27.2022
     H     36.99800000     24.88000000     14.63700000    0.1074   27.2735
     H     39.53500000     26.22600000     14.54600000    0.0473   26.9018
     H     40.25500000     24.38700000     13.05000000    0.0630   29.5785
     H     39.39800000     23.77200000     14.50400000    0.0462   30.0850
     H     38.55200000     23.83000000     12.92000000    0.0164   30.4966
     H     37.52340000     27.11700000     11.05550000    0.1267   27.3912
     H     35.97690000     26.74570000     15.56230000   -0.0077   23.0634
