31
chgs=0 nmr=1 
     C     34.73800000     30.87500000     21.47300000    0.0143  139.6720
     C     33.58900000     30.18900000     22.18100000    0.0345   32.2130
     O     33.58000000     29.00900000     22.49900000   -0.2172  -30.6615
     C     34.87600000     30.23700000     20.06600000   -0.0543  154.0223
     C     36.01200000     30.86000000     19.22100000    0.0373  158.4481
     C     36.08300000     30.19400000     17.87500000   -0.0480   31.0963
     O     35.04800000     29.70200000     17.39300000   -0.2474  -68.0367
     C     34.50900000     26.07700000     19.36000000   -0.0974  178.5817
     C     33.20600000     26.31100000     20.12200000   -0.0821  178.9146
     N     37.22800000     30.12600000     17.23300000    0.0215  168.3649
     N     32.47800000     30.91700000     22.26900000   -0.0129  161.6596
     C     36.33400000     31.74200000     23.08700000    0.1187   45.4048
     O     35.57400000     32.61800000     23.48300000   -0.2693  -72.5548
     N     36.00000000     30.86000000     22.17200000   -0.0635  140.7384
     H     34.44500000     31.92400000     21.31900000   -0.0020   27.6751
     H     35.08000000     29.16300000     20.18800000    0.0503   29.4649
     H     33.92600000     30.37100000     19.52700000    0.0477   28.8715
     H     35.81700000     31.93400000     19.08500000    0.0459   29.3974
     H     36.97000000     30.72500000     19.74400000   -0.0116   29.6197
     H     34.78800000     25.01600000     19.43700000    0.0189   30.4832
     H     35.30300000     26.69700000     19.80200000    0.0237   30.5809
     H     32.92400000     27.37300000     20.07200000    0.0373   30.3527
     H     32.40100000     25.69700000     19.69200000    0.0199   30.5011
     H     37.27600000     29.67300000     16.34300000    0.1225   27.3428
     H     38.05100000     30.52700000     17.63500000    0.1069   27.3889
     H     32.49800000     31.87600000     21.98800000    0.1124   27.0377
     H     36.65600000     30.13900000     21.94800000    0.1173   27.6066
     H     34.38860000     26.34390000     18.29970000    0.0354   30.3609
     H     33.38860000     26.01700000     21.16610000    0.0346   30.1525
     H     31.62410000     30.52410000     22.61040000    0.1199   27.6177
     H     37.33660000     31.66700000     23.53330000   -0.0132   23.3737
