27
chgs=0 nmr=1 
     C     21.18400000     24.26300000     11.69000000    0.0886  142.2509
     C     21.11000000     24.11100000     10.17300000   -0.0703   25.9760
     O     21.84100000     23.19800000      9.68600000   -0.2757  -65.2219
     C     22.65000000     24.51600000     12.17200000   -0.1804  148.9700
     C     22.66200000     24.81900000     13.69900000   -0.0189  155.0073
     C     23.37600000     25.64500000     11.40900000   -0.0067  172.9699
     C     24.12300000     24.98100000     14.19500000   -0.0298  173.4600
     C     21.63700000     28.92300000     10.35300000    0.0974  137.5703
     O     20.54400000     28.04700000     10.05900000   -0.3293  330.8342
     N     20.29100000     24.87500000      9.50700000    0.0248  168.7390
     H     20.53700000     25.08800000     12.02200000   -0.0138   29.9609
     H     23.21600000     23.58600000     12.01300000    0.0261   29.3737
     H     22.10700000     25.74900000     13.89000000    0.0103   30.5152
     H     22.18400000     23.98900000     14.23900000    0.0113   29.8549
     H     24.39600000     25.75900000     11.80600000    0.0258   29.5803
     H     23.42500000     25.39200000     10.34000000    0.0360   30.1535
     H     22.82500000     26.58800000     11.53800000    0.0129   31.0529
     H     24.12300000     25.19500000     15.27400000    0.0218   30.2391
     H     24.68000000     24.05100000     14.00600000    0.0268   30.6226
     H     24.60300000     25.81200000     13.65700000    0.0281   29.7784
     H     22.57800000     28.46500000     10.01500000    0.0309   27.6220
     H     21.68500000     29.10200000     11.43700000    0.0417   27.8257
     H     20.74700000     27.53500000      9.28500000    0.1455   32.9135
     H     19.77500000     25.56800000     10.01100000    0.1195   27.0298
     H     20.84000000     23.30620000     12.10980000    0.0388   28.8101
     H     21.48070000     29.87660000      9.82740000    0.0246   27.6258
     H     20.15030000     24.80670000      8.51930000    0.1139   27.6511
