18
chgs=0 nmr=1 
     C     21.63700000     28.92300000     10.35300000    0.0968  138.2743
     O     20.54400000     28.04700000     10.05900000   -0.3197  335.6806
     C     21.44700000     27.86900000     16.02600000    0.0111   67.5973
     C     21.32500000     28.81300000     15.00500000   -0.0000   67.0933
     C     20.63800000     26.73500000     16.05300000    0.0058   66.5666
     C     20.36900000     28.64800000     14.00100000    0.0221   65.2503
     C     19.67700000     26.53900000     15.05100000    0.0206   67.3075
     C     19.59300000     27.46500000     14.02100000    0.0054   64.5503
     H     22.57800000     28.46500000     10.01500000    0.0155   27.9487
     H     21.68500000     29.10200000     11.43700000    0.0309   27.5543
     H     20.74700000     27.53500000      9.28500000    0.1532   32.7924
     H     21.97400000     29.67600000     14.99200000   -0.0164   24.2488
     H     20.75100000     26.00800000     16.84400000   -0.0148   24.2552
     H     20.22700000     29.39700000     13.23600000   -0.0008   23.7440
     H     19.01600000     25.68500000     15.08000000   -0.0139   24.1254
     H     18.91100000     27.27600000     13.20500000   -0.0049   24.0838
     H     21.48070000     29.87660000      9.82740000    0.0165   27.5979
     H     22.20570000     28.00520000     16.81080000   -0.0074   24.0259
