22
chgs=0 nmr=1 
     C     29.82100000     35.95700000     24.76500000    0.0033  168.2003
     C     28.04900000     35.45400000     23.07100000    0.0429  167.7500
     C     30.05200000     35.04200000     20.00400000    0.1220   37.5809
     O     30.10500000     36.30500000     19.78800000   -0.3275  -89.9351
     N     32.76300000     35.83100000     23.09000000    0.0283  164.6990
     N     30.12400000     34.53300000     21.19100000   -0.0610  125.6310
     C     30.47900000     35.36900000     22.37400000    0.0457  129.0252
     C     31.90100000     34.91000000     22.72800000    0.0009   26.8852
     O     32.19000000     33.69600000     22.63500000   -0.2531  -44.6397
     C     29.47200000     35.18100000     23.49800000   -0.1451  158.7890
     H     29.05300000     35.77400000     25.53100000    0.0328   30.2158
     H     30.80000000     35.62400000     25.14100000    0.0306   30.0590
     H     29.86200000     37.03200000     24.53700000    0.0167   30.7280
     H     27.37300000     35.30100000     23.92600000    0.0261   30.4165
     H     27.96500000     36.49300000     22.71900000    0.0290   30.4840
     H     27.77200000     34.76700000     22.25700000    0.0178   29.8410
     H     32.48200000     36.79100000     23.10200000    0.1162   27.2215
     H     29.93800000     33.55900000     21.31800000    0.1222   26.4757
     H     30.50500000     36.43000000     22.08400000    0.0196   26.6223
     H     29.51300000     34.11600000     23.77100000    0.0093   29.7370
     H     29.86790000     34.38390000     19.14200000    0.0008   23.0500
     H     33.69650000     35.58850000     23.35410000    0.1226   27.3160
