30
chgs=0 nmr=1 
     N     26.84900000     29.65600000      6.21700000   -0.0830  131.5397
     C     26.23500000     30.05800000      7.49700000    0.0016  127.2756
     C     26.88200000     31.42800000      7.86200000   -0.0060   32.4805
     O     27.90600000     31.71100000      7.26400000   -0.2144  -31.3182
     C     26.34400000     29.05000000      8.64500000   -0.1069  144.8010
     C     27.81000000     28.74800000      8.99900000   -0.0552  161.4946
     C     25.49100000     27.77100000      8.28700000    0.0393  168.2238
     C     27.96700000     28.08700000     10.41700000   -0.0266  173.6016
     C     31.56200000     29.68600000      8.04500000   -0.1780  195.7077
     C     26.10000000     29.25300000      5.20200000    0.1370   38.1217
     O     24.86500000     29.02400000      5.33000000   -0.3024  -76.7924
     N     26.21400000     32.09700000      8.77100000    0.0200  173.9774
     H     27.84300000     29.68800000      6.11500000    0.1207   26.1090
     H     25.16500000     30.24200000      7.32000000    0.0310   26.4539
     H     25.87900000     29.50700000      9.53100000   -0.0154   29.9887
     H     28.22100000     28.06200000      8.24300000    0.0161   30.4617
     H     28.37700000     29.69100000      8.98500000    0.0383   29.8143
     H     25.56300000     27.04000000      9.10600000    0.0164   30.0365
     H     24.43900000     28.06000000      8.14500000    0.0283   29.9989
     H     25.87600000     27.32100000      7.36000000    0.0388   30.3884
     H     29.03100000     27.89400000     10.61600000    0.0310   30.2256
     H     27.56800000     28.76600000     11.18400000    0.0215   30.8734
     H     27.41100000     27.13800000     10.44300000    0.0291   30.1497
     H     30.84400000     30.34400000      8.55700000    0.0478   31.2130
     H     31.10600000     28.69700000      7.88900000    0.0305   31.4256
     H     25.36900000     31.73600000      9.16600000    0.1253   26.8649
     H     31.64470000     30.10980000      7.03330000    0.0537   30.4765
     H     32.34920000     29.50780000      8.79240000    0.0474   30.6381
     H     26.64200000     29.08530000      4.25960000   -0.0060   23.3026
     H     26.58310000     32.98270000      9.05280000    0.1200   27.5837
