30
chgs=0 nmr=1 
     N     30.31000000     25.45800000      5.38400000   -0.0703  145.0282
     C     30.28800000     24.24500000      6.19300000    0.0144  133.7350
     C     29.27900000     23.22700000      5.64100000   -0.0063   28.7270
     O     31.83800000     21.40200000      7.96800000   -0.2437  329.3518
     C     29.90300000     24.59000000      7.66500000   -0.1619  152.6025
     C     30.86200000     25.49600000      8.38900000    0.0536  168.9265
     C     28.47600000     25.13500000      7.70500000    0.0050  170.1994
     O     28.47800000     23.52200000      4.72500000   -0.2423  -48.4071
     C     27.71800000     23.34100000     10.57800000   -0.1803  191.9721
     N     29.38000000     22.05700000      6.23200000    0.0089  169.2198
     C     31.44000000     26.07900000      5.08000000    0.1209   44.1914
     O     32.57600000     25.80200000      5.46100000   -0.2721  -47.6091
     H     29.44600000     25.83300000      5.04800000    0.1217   26.4674
     H     31.28700000     23.78400000      6.19600000    0.0259   26.7364
     H     32.26600000     21.18200000      7.14900000    0.1648   31.0289
     H     29.89100000     23.63600000      8.21200000    0.0056   29.2512
     H     30.49800000     25.67400000      9.41200000    0.0169   30.5113
     H     31.85400000     25.02200000      8.43000000    0.0271   29.8278
     H     30.93500000     26.45400000      7.85400000    0.0270   30.4242
     H     28.20500000     25.37800000      8.74300000    0.0199   30.6467
     H     28.41300000     26.04300000      7.08700000    0.0051   30.7716
     H     27.78300000     24.37600000      7.31300000    0.0362   30.3958
     H     28.68700000     23.85800000     10.64800000    0.0542   30.9307
     H     27.75200000     22.60800000      9.75900000    0.0420   31.0359
     H     26.92400000     24.07600000     10.38000000    0.0537   30.8905
     H     30.12100000     21.92300000      6.89000000    0.0734   25.5367
     H     31.90470000     20.64400000      8.58560000    0.1747   29.9218
     H     27.50910000     22.82230000     11.52530000    0.0392   31.0489
     H     28.75700000     21.29400000      6.05990000    0.1112   27.7103
     H     31.28000000     26.99650000      4.49470000   -0.0245   23.4805
