19
chgs=0 nmr=1 
     C     29.60400000     43.50700000     13.39300000    0.1237   42.9797
     O     29.21900000     43.98100000     12.30100000   -0.2970  -67.6077
     N     30.56300000     42.62300000     13.49500000   -0.0513  129.8895
     C     31.19100000     42.01200000     12.33100000   -0.0056  134.7148
     C     30.45900000     40.66600000     12.13000000   -0.0257   28.9991
     O     30.25300000     39.99100000     13.13300000   -0.2265  -21.3508
     C     32.67200000     41.71700000     12.50500000   -0.0045  162.0925
     C     33.28000000     41.08600000     11.22700000   -0.0537  175.1466
     N     30.16300000     40.33800000     10.88600000    0.0197  165.0280
     H     30.87700000     42.35700000     14.40600000    0.1170   26.7120
     H     31.04300000     42.64100000     11.44100000    0.0114   27.1580
     H     33.20000000     42.65600000     12.72600000    0.0327   29.9019
     H     32.80100000     41.01800000     13.34500000    0.0265   29.8043
     H     32.75600000     40.14700000     10.99400000    0.0362   30.1143
     H     33.17300000     41.78500000     10.38400000    0.0271   30.6211
     H     30.35300000     40.96100000     10.12800000    0.1214   27.0388
     H     29.14480000     43.83930000     14.33570000   -0.0100   23.4835
     H     34.34620000     40.87950000     11.40180000    0.0382   30.1273
     H     29.74210000     39.44470000     10.72810000    0.1203   27.4934
