18
chgs=0 nmr=1 
     C     28.60500000     33.96500000     12.50300000    0.0431  136.2542
     C     28.63800000     35.46100000     12.90000000   -0.0891   32.5088
     O     29.52200000     36.10300000     12.32000000   -0.2442  -28.8430
     C     29.96300000     33.31700000     12.81400000   -0.1784  158.7802
     C     30.21100000     33.39400000     14.30400000    0.0093  166.1568
     C     29.95700000     31.83800000     12.35200000    0.0230  163.0686
     N     27.75100000     35.86700000     13.74000000    0.0511  172.1965
     H     27.82500000     33.46000000     13.09200000   -0.0322   30.5198
     H     30.75600000     33.85900000     12.27900000    0.0349   29.1792
     H     31.18200000     32.93300000     14.53900000    0.0226   30.3047
     H     30.22000000     34.44800000     14.62000000    0.0353   29.9769
     H     29.41200000     32.85800000     14.83700000    0.0037   31.0836
     H     30.93100000     31.37900000     12.57700000    0.0212   30.2230
     H     29.16300000     31.29200000     12.88200000    0.0105   30.7992
     H     29.77200000     31.79300000     11.26900000    0.0199   30.1753
     H     27.09800000     35.21600000     14.12700000    0.1175   27.0640
     H     28.34310000     33.94830000     11.43480000    0.0374   28.9807
     H     27.71110000     36.82960000     14.00790000    0.1144   27.7568
