20
chgs=0 nmr=1 
     N     26.55900000     20.22000000      7.28800000   -0.2766  121.9352
     C     25.82900000     19.82500000      8.49400000    0.0463  129.0420
     C     26.54100000     18.73200000      9.25100000    0.0022   32.6651
     O     26.33300000     18.53600000     10.45700000   -0.2304  -52.3079
     C     24.46900000     19.33200000      7.95200000    0.0149  157.0226
     C     24.29900000     20.13400000      6.70400000   -0.0306  162.0424
     C     25.71400000     20.10800000      6.07300000    0.1364  139.9493
     N     27.36100000     17.95900000      8.55900000    0.0068  174.3552
     C     27.81900000     20.60900000      7.31600000    0.1266   45.1305
     O     28.44900000     20.67400000      8.36000000   -0.2371 -103.4559
     H     25.66900000     20.69300000      9.15000000    0.0406   27.4891
     H     24.49800000     18.25500000      7.73000000    0.0191   29.7850
     H     23.65900000     19.53700000      8.66800000    0.0468   28.9661
     H     23.56000000     19.67000000      6.03400000    0.0312   29.5069
     H     23.98900000     21.16400000      6.93600000    0.0367   29.6225
     H     25.90100000     19.16700000      5.53500000    0.0298   28.1859
     H     25.87000000     20.95700000      5.39100000    0.0370   27.7587
     H     27.51100000     18.13900000      7.58700000    0.1004   27.0447
     H     27.83170000     17.19550000      9.00120000    0.1200   27.7787
     H     28.28810000     20.84830000      6.35030000   -0.0200   23.1309
