22
chgs=0 nmr=1 
     N     34.73400000     25.82200000     14.94900000   -0.1128  129.4253
     C     35.59600000     26.71500000     15.73600000    0.0422  129.5451
     C     36.97500000     26.82600000     15.10700000   -0.0015   27.4517
     O     37.57900000     27.92600000     15.15900000   -0.2430  -72.0340
     C     35.71500000     26.20300000     17.17200000   -0.0327  148.3547
     C     34.34300000     26.44500000     17.89800000   -0.0560  159.6034
     C     34.50900000     26.07700000     19.36000000   -0.0060  172.2429
     C     34.44100000     26.09900000     13.68400000    0.1292   42.5580
     O     34.88300000     27.09000000     13.09300000   -0.2476  -97.6498
     N     37.49900000     25.74300000     14.57100000    0.0153  176.9396
     H     34.36300000     24.99500000     15.37200000    0.1085   27.2356
     H     35.14500000     27.71800000     15.76300000    0.0362   27.4477
     H     35.94800000     25.12800000     17.16500000    0.0019   30.2474
     H     36.51400000     26.74800000     17.69600000    0.0443   29.5053
     H     34.05700000     27.50400000     17.81100000    0.0332   29.9887
     H     33.56400000     25.81600000     17.44200000    0.0087   29.7975
     H     34.78800000     25.01600000     19.43700000    0.0196   30.4785
     H     35.30300000     26.69700000     19.80200000    0.0308   30.2992
     H     36.99800000     24.88000000     14.63700000    0.0931   27.3125
     H     33.57070000     26.24550000     19.90870000    0.0299   30.0380
     H     33.78620000     25.37640000     13.17490000   -0.0159   23.3564
     H     38.38120000     25.75530000     14.10030000    0.1226   27.7529
