29
chgs=0 nmr=1 
     O     29.58600000     43.57000000     19.48300000   -0.2490  -42.6265
     C     29.91900000     40.89000000     20.93800000   -0.0095  157.7424
     C     29.18300000     39.72200000     21.58100000   -0.0220  168.9924
     C     27.70000000     39.72100000     21.22800000   -0.0661  177.4227
     C     30.22500000     38.64300000     16.66200000    0.0241  148.8147
     C     29.66400000     39.83900000     17.43400000   -0.0206   35.2834
     O     28.85000000     40.56500000     16.85900000   -0.2247 -105.2439
     C     31.74400000     38.87900000     16.29900000    0.1017  123.8994
     O     31.73700000     40.25700000     15.82400000   -0.2730  298.8234
     N     30.99100000     42.57100000     17.99800000   -0.0060  158.6602
     N     30.13200000     40.06900000     18.64200000   -0.1096  146.9671
     C     29.60700000     41.18000000     19.46700000    0.0366  137.6511
     C     30.07500000     42.53800000     18.98400000    0.0104   27.6823
     H     30.99700000     40.68600000     21.01500000    0.0009   30.1799
     H     29.67500000     41.79500000     21.51400000    0.0387   29.2071
     H     29.62800000     38.78600000     21.21200000   -0.0017   30.1254
     H     27.20800000     38.86400000     21.71100000    0.0259   30.3190
     H     27.23900000     40.65500000     21.58100000    0.0390   30.6120
     H     27.58300000     39.64300000     20.13700000    0.0499   30.1104
     H     30.16200000     37.75100000     17.30200000    0.0215   29.2040
     H     32.36600000     38.76400000     17.19900000    0.0116   27.5567
     H     32.61800000     40.51000000     15.57300000    0.1566   31.9144
     H     31.36100000     41.73700000     17.58800000    0.0864   25.0917
     H     30.85500000     39.48300000     19.00900000    0.1076   27.4031
     H     28.51100000     41.16800000     19.37000000    0.0512   26.9530
     H     29.27350000     39.74230000     22.67710000    0.0262   29.8244
     H     29.62730000     38.48370000     15.75240000    0.0423   28.7298
     H     32.11290000     38.22830000     15.49250000    0.0355   27.1594
     H     31.27780000     43.48210000     17.70190000    0.1161   27.4961
