17
chgs=0 nmr=1 
     N     27.34000000     24.43000000      2.61400000   -0.1443  219.9474
     C     26.26600000     25.41300000      2.84200000   -0.0460  133.1568
     C     26.91300000     26.63900000      3.53100000   -0.0955   33.0325
     O     27.88600000     26.46300000      4.26300000   -0.2096  -47.1975
     C     25.11200000     24.88000000      3.64900000   -0.0011  161.3773
     C     25.35300000     24.86000000      5.13400000   -0.0047  179.2084
     N     26.33500000     27.77000000      3.25800000    0.0439  174.5460
     H     26.96100000     23.61900000      2.16800000    0.0758   32.1010
     H     28.04300000     24.83400000      2.02900000    0.0859   31.7180
     H     25.88000000     25.74300000      1.86700000   -0.0228   27.9331
     H     24.23300000     25.51000000      3.45100000   -0.0024   29.9780
     H     24.90700000     23.85100000      3.31900000    0.0105   30.1163
     H     26.29500000     24.33800000      5.35600000    0.0448   29.6165
     H     25.40300000     25.88800000      5.52200000    0.0284   30.7534
     H     25.55800000     27.80400000      2.63000000    0.1087   27.2747
     H     24.50780000     24.32480000      5.59140000    0.0163   30.6613
     H     26.67910000     28.60590000      3.68560000    0.1120   27.6327
