17
chgs=0 nmr=1 
     N     24.24000000     19.23300000     12.24600000   -0.1437  138.6360
     C     22.92400000     18.58300000     12.02500000    0.0300  130.9823
     C     22.22900000     18.24400000     13.32500000   -0.0050   28.0624
     O     20.96300000     18.25300000     13.39500000   -0.2611  -67.4816
     C     23.05900000     17.32600000     11.15400000    0.1560  126.4643
     O     23.91400000     16.39500000     11.75500000   -0.2797  316.9299
     N     22.99700000     17.97800000     14.36600000    0.0242  165.2740
     C     24.24100000     20.43600000     12.85700000    0.1274   46.0120
     O     23.26400000     20.95100000     13.32900000   -0.2147  -87.4891
     H     25.09100000     18.79700000     11.95400000    0.1155   26.3814
     H     22.28300000     19.29200000     11.48000000    0.0485   27.4358
     H     22.06600000     16.87100000     11.02100000    0.0302   27.0138
     H     23.46700000     17.60900000     10.17200000    0.0120   27.3702
     H     23.98400000     15.62600000     11.20200000    0.1615   32.1176
     H     23.99100000     18.00600000     14.25900000    0.0988   26.4975
     H     22.60770000     17.74940000     15.25830000    0.1196   27.3889
     H     25.21610000     20.92100000     13.01190000   -0.0193   23.1800
