21
chgs=0 nmr=1 
     C     34.87600000     30.23700000     20.06600000   -0.1837  194.6663
     C     35.71500000     26.20300000     17.17200000   -0.0268  169.8453
     C     34.34300000     26.44500000     17.89800000   -0.0621  162.9949
     C     34.50900000     26.07700000     19.36000000   -0.0749  148.6045
     C     33.20600000     26.31100000     20.12200000    0.0724  141.6958
     N     33.45500000     25.91000000     21.54600000   -0.2185  230.5690
     H     35.08000000     29.16300000     20.18800000    0.0553   30.8771
     H     33.92600000     30.37100000     19.52700000    0.0410   31.0443
     H     35.94800000     25.12800000     17.16500000    0.0239   30.4127
     H     36.51400000     26.74800000     17.69600000    0.0243   30.4674
     H     34.05700000     27.50400000     17.81100000    0.0180   30.1513
     H     33.56400000     25.81600000     17.44200000    0.0149   30.1132
     H     34.78800000     25.01600000     19.43700000    0.0036   30.1945
     H     35.30300000     26.69700000     19.80200000    0.0280   29.6336
     H     32.92400000     27.37300000     20.07200000    0.0128   28.9059
     H     32.40100000     25.69700000     19.69200000   -0.0065   28.3624
     H     32.62200000     26.04800000     22.08200000    0.0816   31.6081
     H     33.71700000     24.94500000     21.58000000    0.0849   32.2579
     H     34.77810000     30.68950000     21.06380000    0.0463   30.9211
     H     35.68390000     30.68000000     19.46510000    0.0433   30.9924
     H     35.62940000     26.57130000     16.13900000    0.0223   30.0945
