41
chgs=0 nmr=1 
     N     34.73400000     25.82200000     14.94900000   -0.1476  134.6269
     C     35.59600000     26.71500000     15.73600000    0.1589  144.7368
     C     32.77600000     22.51900000     16.57700000   -0.0425   28.4875
     O     33.23300000     23.65900000     16.38400000   -0.2474  -40.1529
     C     35.71500000     26.20300000     17.17200000   -0.0607  153.9587
     C     30.83200000     23.69900000     18.35800000   -0.0880  171.1025
     C     34.34300000     26.44500000     17.89800000   -0.0809  149.6795
     C     34.50900000     26.07700000     19.36000000   -0.0453  159.8316
     C     33.20600000     26.31100000     20.12200000   -0.0221  171.2523
     C     31.28800000     22.20100000     16.41700000   -0.0091  148.7553
     C     30.52000000     22.30000000     17.76400000   -0.0538  163.9573
     C     30.73800000     27.69300000     17.12200000   -0.1854  192.2325
     C     34.44100000     26.09900000     13.68400000    0.1227   42.5168
     O     34.88300000     27.09000000     13.09300000   -0.2873  -71.7331
     N     33.54800000     21.52600000     16.95000000    0.0220  162.8798
     H     34.36300000     24.99500000     15.37200000    0.1185   25.3384
     H     35.14500000     27.71800000     15.76300000    0.0186   28.2500
     H     35.94800000     25.12800000     17.16500000    0.0059   29.8634
     H     36.51400000     26.74800000     17.69600000    0.0131   29.8996
     H     30.30700000     23.81600000     19.31800000    0.0329   30.1339
     H     31.91600000     23.79500000     18.51900000    0.0796   29.8046
     H     30.49400000     24.47800000     17.65800000    0.0454   30.0799
     H     34.05700000     27.50400000     17.81100000    0.0122   30.4302
     H     33.56400000     25.81600000     17.44200000    0.0378   28.7497
     H     34.78800000     25.01600000     19.43700000    0.0015   30.1633
     H     35.30300000     26.69700000     19.80200000    0.0086   30.0529
     H     32.92400000     27.37300000     20.07200000    0.0223   30.5152
     H     32.40100000     25.69700000     19.69200000    0.0275   30.3957
     H     30.85300000     22.93800000     15.72600000    0.0428   29.3983
     H     30.88200000     21.52100000     18.45100000    0.0139   30.0029
     H     31.66200000     27.87700000     16.55400000    0.0571   30.8585
     H     30.87500000     26.81500000     17.77000000    0.0516   30.9760
     H     29.90900000     27.50700000     16.42300000    0.0379   31.0757
     H     33.14600000     20.63400000     17.15600000    0.1156   26.9414
     H     36.59410000     26.79530000     15.28070000    0.0211   28.0571
     H     33.38860000     26.01700000     21.16610000    0.0148   30.1878
     H     31.15610000     21.19280000     15.99730000    0.0221   28.9680
     H     29.45860000     22.11980000     17.53830000    0.0373   29.7056
     H     30.50570000     28.57220000     17.74090000    0.0381   31.0767
     H     33.78620000     25.37640000     13.17490000   -0.0317   23.4784
     H     34.53630000     21.65660000     17.02930000    0.1220   27.1816
