25
chgs=0 nmr=1 
     N     30.88400000     31.48500000      6.66600000   -0.0741  111.2019
     C     31.67700000     30.27500000      6.63900000   -0.0181  144.0084
     C     31.02200000     29.28800000      5.66500000   -0.0087   30.1671
     O     29.80900000     29.39500000      5.54500000   -0.2289  -15.0853
     C     31.56200000     29.68600000      8.04500000    0.0665  138.2213
     C     32.63100000     29.44400000      9.06000000   -0.1575  163.9010
     C     33.81400000     30.39000000      9.03000000    0.0308  169.5006
     C     31.94500000     29.44900000     10.43600000   -0.0056  157.9574
     N     31.83400000     28.41200000      5.12500000    0.0222  176.2372
     C     31.40900000     32.68000000      6.44600000    0.1309   42.2295
     O     32.61900000     32.81200000      6.12500000   -0.3061  -73.0809
     H     29.90500000     31.41600000      6.85800000    0.1201   25.9981
     H     32.72700000     30.46400000      6.36900000    0.0274   26.5429
     H     30.84400000     30.34400000      8.55700000    0.0005   29.8036
     H     31.10600000     28.69700000      7.88900000    0.0189   28.7048
     H     33.02000000     28.42800000      8.89700000   -0.0012   29.8088
     H     34.52800000     30.11100000      9.81900000    0.0207   30.3400
     H     34.30900000     30.32700000      8.05000000    0.0221   29.9426
     H     33.46500000     31.41900000      9.19900000    0.0277   30.6237
     H     32.69500000     29.27400000     11.22100000    0.0192   30.2647
     H     31.46200000     30.42300000     10.60100000    0.0269   30.8720
     H     31.18600000     28.65300000     10.47000000    0.0262   30.1061
     H     32.82200000     28.45600000      5.27400000    0.1233   27.0713
     H     31.42440000     27.69750000      4.55790000    0.1216   27.7919
     H     30.74920000     33.55880000      6.49420000   -0.0046   23.3361
