19
chgs=0 nmr=1 
     C     38.36500000     29.33500000     24.15900000    0.1414   38.9266
     O     37.68400000     29.39000000     25.22100000   -0.2797 -110.2959
     N     38.41900000     30.37300000     23.34100000   -0.1272  127.5485
     C     37.73800000     31.63700000     23.71200000   -0.0003  128.9081
     C     36.33400000     31.74200000     23.08700000    0.0033   33.3084
     O     35.57400000     32.61800000     23.48300000   -0.2220  -33.2207
     C     38.52800000     32.85400000     23.18200000   -0.0492  158.7825
     C     39.91900000     32.85400000     23.84000000    0.0012  174.1624
     N     36.00000000     30.86000000     22.17200000    0.0127  177.4417
     H     38.91700000     30.30600000     22.47600000    0.1164   27.2629
     H     37.65300000     31.71100000     24.80600000    0.0610   26.5246
     H     38.63400000     32.78100000     22.09000000    0.0059   30.3048
     H     37.99600000     33.78200000     23.43800000    0.0528   28.9903
     H     39.79500000     32.89900000     24.93200000    0.0343   30.4366
     H     40.44000000     31.92400000     23.56800000    0.0071   30.2530
     H     36.65600000     30.13900000     21.94800000    0.0901   26.7948
     H     38.86900000     28.41650000     23.82390000   -0.0020   23.1520
     H     40.52860000     33.71070000     23.51670000    0.0337   30.2474
     H     35.12530000     30.87040000     21.68750000    0.1206   27.8618
