29
chgs=0 nmr=1 
     N     34.73400000     25.82200000     14.94900000    0.0039  170.4420
     N     35.13900000     21.62400000     14.66200000   -0.0945  129.8204
     C     35.59000000     21.94500000     13.30200000    0.0096  136.9678
     C     35.23800000     23.38200000     12.92000000    0.0440   28.5180
     O     36.06600000     24.10900000     12.33300000   -0.2174  -90.7472
     C     35.06400000     20.95700000     12.25500000    0.0022  170.7743
     N     34.00700000     23.74500000     13.25000000   -0.0962  145.2354
     C     33.53300000     25.09700000     12.97800000    0.0269  130.2449
     C     34.44100000     26.09900000     13.68400000   -0.0125   31.8758
     O     34.88300000     27.09000000     13.09300000   -0.2093  -68.7799
     C     35.61500000     22.19000000     15.75900000    0.1179   39.8847
     C     32.06000000     25.25700000     13.36400000   -0.0338  161.6133
     C     31.15200000     24.42100000     12.47700000   -0.0032  175.0536
     O     36.53200000     23.04600000     15.72400000   -0.2690 -110.8002
     H     34.36300000     24.99500000     15.37200000    0.0964   27.6613
     H     34.42500000     20.93200000     14.76600000    0.1059   27.2727
     H     36.68700000     21.87000000     13.28900000    0.0430   27.2031
     H     35.45300000     19.95000000     12.46600000    0.0471   30.0047
     H     33.96400000     20.93800000     12.28200000    0.0143   30.5279
     H     33.39700000     23.08600000     13.69000000    0.0889   26.8824
     H     33.61300000     25.28200000     11.89700000    0.0265   27.8509
     H     31.94400000     24.89900000     14.39800000   -0.0016   30.3403
     H     30.10600000     24.56300000     12.78500000    0.0382   30.1006
     H     31.27200000     24.73600000     11.43000000    0.0388   30.4001
     H     31.42200000     23.35900000     12.57400000    0.0057   30.4702
     H     35.32050000     26.42960000     15.48450000    0.1233   27.8040
     H     35.40590000     21.28740000     11.26310000    0.0639   29.5965
     H     35.18920000     21.84880000     16.71410000   -0.0043   23.1875
     H     31.79120000     26.32350000     13.34830000    0.0455   29.5074
