17
chgs=0 nmr=1 
     N     21.67400000     30.03400000      8.19100000   -0.0707  126.9843
     C     21.41900000     30.25300000      9.62000000   -0.0242  126.7556
     C     22.50400000     31.22800000     10.13600000   -0.0283   36.5667
     O     23.57900000     31.32100000      9.55400000   -0.2222  -42.9684
     C     21.63700000     28.92300000     10.35300000    0.1866  121.1012
     O     20.54400000     28.04700000     10.05900000   -0.2769  301.2852
     N     22.24100000     31.87300000     11.24100000    0.0276  174.7401
     C     21.46600000     30.95300000      7.26100000    0.1440   39.0650
     O     21.06600000     32.11200000      7.53300000   -0.2858  -97.9809
     H     22.02400000     29.14200000      7.90400000    0.0984   27.4306
     H     20.41000000     30.65000000      9.80700000    0.0362   27.2181
     H     22.57800000     28.46500000     10.01500000    0.0214   27.7955
     H     21.68500000     29.10200000     11.43700000    0.0226   27.5902
     H     20.74700000     27.53500000      9.28500000    0.1520   31.3728
     H     21.34100000     31.75600000     11.66200000    0.1085   27.5606
     H     22.90230000     32.47850000     11.68370000    0.1213   27.5058
     H     21.78930000     30.66710000      6.24920000   -0.0104   23.2659
