9
chgs=0 nmr=1 
     C     44.17400000     29.90500000     29.55400000   -0.1953   49.3949
     N     43.75400000     30.31200000     28.35600000   -0.0188  204.1713
     N     45.47700000     29.72600000     29.76300000   -0.2205  106.3437
     N     43.31100000     29.73500000     30.56300000   -0.0285  212.1260
     H     44.41500000     30.48000000     27.62500000    0.1113   28.9252
     H     42.77800000     30.44900000     28.18900000    0.0854   28.9236
     H     46.01900000     29.93000000     28.94800000    0.0487   27.8300
     H     43.64900000     29.35700000     31.42500000    0.1215   28.6902
     H     42.34210000     29.97120000     30.48970000    0.0961   29.4098
