27
chgs=0 nmr=1 
     C     24.34800000     39.29600000     14.64200000   -0.0353  171.0150
     C     28.63800000     35.46100000     12.90000000    0.0978   46.4787
     C     23.72700000     35.13100000     12.72200000   -0.1829  192.6968
     O     29.52200000     36.10300000     12.32000000   -0.2874  -57.6002
     N     29.42600000     38.43000000     15.44600000   -0.0205  157.1480
     N     27.75100000     35.86700000     13.74000000   -0.0549  129.9195
     C     27.69100000     37.31500000     14.14300000    0.0584  136.6757
     C     28.46900000     37.47500000     15.42000000    0.0335   24.6178
     O     28.21300000     36.75300000     16.41100000   -0.2494  -53.8878
     C     26.21900000     37.68400000     14.30700000   -0.0527  149.0972
     C     25.88400000     39.13900000     14.61500000   -0.0434  168.0323
     H     23.94200000     38.86500000     13.71500000    0.0261   30.5588
     H     23.96100000     38.73700000     15.50600000    0.0314   30.3423
     H     23.36200000     36.16700000     12.78000000    0.0493   31.0063
     H     23.87600000     34.73700000     13.73800000    0.0431   31.0624
     H     24.68200000     35.10900000     12.17700000    0.0446   31.0674
     H     29.59100000     38.99300000     14.63600000    0.1182   26.8907
     H     27.09800000     35.21600000     14.12700000    0.1284   26.7987
     H     28.13900000     37.93800000     13.35500000    0.0081   27.0540
     H     25.70800000     37.42000000     13.36900000    0.0335   29.9470
     H     25.81700000     37.07300000     15.12800000    0.0256   29.5056
     H     26.30200000     39.41600000     15.59400000    0.0332   30.0928
     H     26.30900000     39.79000000     13.83700000    0.0146   30.2780
     H     23.99620000     40.33530000     14.71990000    0.0298   30.1267
     H     28.61460000     34.39800000     12.61790000   -0.0196   23.3147
     H     22.98880000     34.51060000     12.19280000    0.0475   30.9354
     H     29.96930000     38.57480000     16.27290000    0.1233   27.3341
