19
chgs=0 nmr=1 
     N     23.88000000     26.72700000     23.85100000   -0.0676  126.0813
     C     25.34900000     26.87200000     23.64300000    0.0050  132.2786
     C     25.74300000     25.58600000     22.92200000   -0.0158   25.2969
     O     25.32500000     24.48900000     23.37800000   -0.2621  -42.2766
     C     26.07000000     27.02500000     24.96000000   -0.0082  163.1393
     C     27.55300000     27.35600000     24.69500000   -0.0452  175.0655
     C     23.04600000     27.08700000     22.91300000    0.1216   47.2847
     O     23.38300000     27.62700000     21.87000000   -0.2770  -54.7414
     N     26.46500000     25.68900000     21.83300000    0.0398  162.1782
     H     23.53200000     26.35300000     24.71100000    0.1182   26.7662
     H     25.55800000     27.73800000     22.99800000    0.0111   27.2357
     H     25.61000000     27.84000000     25.53800000    0.0297   29.9617
     H     25.99900000     26.08600000     25.52900000    0.0315   29.5316
     H     28.02600000     26.52000000     24.15900000    0.0358   30.3227
     H     27.62300000     28.26900000     24.08500000    0.0257   30.6155
     H     26.78200000     26.59400000     21.54900000    0.1152   27.0908
     H     28.06650000     27.51530000     25.65460000    0.0377   30.1185
     H     21.97730000     26.87910000     23.07020000   -0.0174   23.5052
     H     26.71010000     24.89590000     21.27550000    0.1220   27.1947
