30
chgs=0 nmr=1 
     C     29.27900000     23.22700000      5.64100000    0.1200   43.0224
     O     28.47800000     23.52200000      4.72500000   -0.2895  -54.5264
     N     29.38000000     22.05700000      6.23200000   -0.0675  128.6268
     C     28.46800000     20.94000000      5.98000000    0.0069  145.3607
     C     27.81900000     20.60900000      7.31600000    0.0301   33.0671
     O     28.44900000     20.67400000      8.36000000   -0.2228  -43.3419
     C     29.21300000     19.69700000      5.50600000    0.0225  170.2547
     N     26.55900000     20.22000000      7.28800000   -0.2762  125.7375
     C     25.82900000     19.82500000      8.49400000    0.0503  128.7074
     C     26.54100000     18.73200000      9.25100000    0.0024   32.1080
     O     26.33300000     18.53600000     10.45700000   -0.2275  -53.8545
     C     24.46900000     19.33200000      7.95200000    0.0201  155.7500
     C     24.29900000     20.13400000      6.70400000   -0.0118  161.7928
     C     25.71400000     20.10800000      6.07300000    0.1073  136.5716
     N     27.36100000     17.95900000      8.55900000    0.0046  176.5797
     H     30.12100000     21.92300000      6.89000000    0.1199   26.7122
     H     27.69800000     21.22000000      5.24600000    0.0331   25.8344
     H     30.07700000     19.54500000      6.16900000    0.0329   30.2520
     H     28.53000000     18.83800000      5.59000000    0.0138   30.5836
     H     25.66900000     20.69300000      9.15000000    0.0423   27.4511
     H     24.49800000     18.25500000      7.73000000    0.0187   29.7129
     H     23.65900000     19.53700000      8.66800000    0.0476   28.9040
     H     23.56000000     19.67000000      6.03400000    0.0315   29.4496
     H     23.98900000     21.16400000      6.93600000    0.0408   29.4873
     H     25.90100000     19.16700000      5.53500000    0.0294   28.1608
     H     25.87000000     20.95700000      5.39100000    0.0648   27.2727
     H     27.51100000     18.13900000      7.58700000    0.0952   27.0915
     H     30.00160000     23.95610000      6.03630000   -0.0119   23.7635
     H     29.58180000     19.73850000      4.47050000    0.0528   29.8674
     H     27.83170000     17.19550000      9.00120000    0.1204   27.8563
