20
chgs=0 nmr=1 
     N     29.42600000     38.43000000     15.44600000   -0.1034  132.1990
     C     30.22500000     38.64300000     16.66200000    0.0288  131.3218
     C     29.66400000     39.83900000     17.43400000    0.0134   34.2192
     O     28.85000000     40.56500000     16.85900000   -0.2198  -68.9198
     C     31.74400000     38.87900000     16.29900000    0.0155  115.1564
     O     31.73700000     40.25700000     15.82400000   -0.2586  264.9587
     C     32.26000000     37.96900000     15.17100000    0.0291  166.1907
     O     28.21300000     36.75300000     16.41100000   -0.2873  -84.5471
     C     28.46900000     37.47500000     15.42000000    0.1522   37.8544
     N     30.13200000     40.06900000     18.64200000    0.0130  177.5727
     H     29.59100000     38.99300000     14.63600000    0.1230   26.1947
     H     30.16200000     37.75100000     17.30200000    0.0387   26.4900
     H     32.36600000     38.76400000     17.19900000    0.0042   27.2135
     H     32.61800000     40.51000000     15.57300000    0.1484   32.0318
     H     33.32000000     38.19100000     14.97600000    0.0257   30.3445
     H     32.15500000     36.91600000     15.47300000    0.0365   30.2152
     H     31.67400000     38.14900000     14.25800000    0.0191   30.0321
     H     30.85500000     39.48300000     19.00900000    0.1035   27.4418
     H     27.89990000     37.35800000     14.48590000   -0.0026   23.0660
     H     29.77730000     40.81960000     19.19940000    0.1206   27.4564
