16
chgs=0 nmr=1 
     C     27.58800000     37.63500000      9.71500000   -0.0214  164.6606
     N     30.79500000     37.01500000     10.09500000   -0.0139  163.7806
     C     29.54200000     39.02000000     10.65300000    0.0559  140.1496
     C     30.49400000     38.26100000      9.72900000   -0.0727   30.7671
     O     30.84900000     38.85000000      8.70600000   -0.2310  -55.3946
     C     28.11300000     39.04900000     10.01500000    0.0399  117.2402
     O     27.28000000     39.72200000     10.99600000   -0.2764  270.1915
     H     26.58500000     37.70300000      9.26900000    0.0233   30.3349
     H     28.26800000     37.13300000      9.01200000    0.0396   29.8258
     H     27.53600000     37.05800000     10.65000000    0.0169   30.6035
     H     30.42700000     36.59700000     10.92600000    0.1190   26.6994
     H     29.47700000     38.47800000     11.60800000   -0.0121   29.8845
     H     28.15100000     39.62800000      9.08100000    0.0230   27.1418
     H     26.38900000     39.77600000     10.67200000    0.1463   32.0966
     H     31.41480000     36.52850000      9.47920000    0.1165   27.8360
     H     30.00500000     40.00260000     10.82670000    0.0472   28.7263
