18
chgs=0 nmr=1 
     C     23.18100000     31.30900000     21.82400000   -0.1836  194.3770
     C     18.45300000     28.94100000     20.59100000    0.0884   44.2675
     O     17.86000000     27.99400000     21.12800000   -0.2606  -86.1047
     N     19.17200000     29.80800000     21.24300000   -0.0972  154.1123
     C     19.39900000     29.89400000     22.65500000    0.1078  149.4265
     C     20.08300000     28.72900000     23.32100000   -0.0561   35.3742
     O     19.99100000     28.58400000     24.56100000   -0.2520  -56.0486
     N     20.80100000     27.93100000     22.57800000    0.0264  171.3732
     H     22.94200000     32.19400000     22.43200000    0.0531   30.9658
     H     22.48200000     31.24600000     20.97700000    0.0245   31.4853
     H     23.09000000     30.40400000     22.44300000    0.0497   31.0120
     H     19.62500000     30.50400000     20.68600000    0.1159   27.6472
     H     20.01700000     30.78600000     22.83600000    0.0556   28.2994
     H     18.42000000     30.02200000     23.13900000    0.0629   27.3831
     H     20.84300000     28.09900000     21.59300000    0.1026   26.8902
     H     24.21010000     31.39160000     21.44430000    0.0531   30.8853
     H     18.44580000     29.08700000     19.50080000   -0.0151   23.4709
     H     21.31100000     27.15820000     22.95590000    0.1245   27.2992
