21
chgs=0 nmr=1 
     C     28.10800000     17.43900000     18.27600000   -0.0434  176.0243
     C     26.92600000     18.19100000     18.89200000   -0.0922  160.1756
     C     26.62100000     17.79900000     20.35200000   -0.0346  148.7786
     C     26.01000000     16.37000000     20.28000000    0.1320  145.9428
     N     26.97500000     15.52100000     20.94200000   -0.0727  179.4248
     C     27.60300000     14.42300000     20.65500000   -0.1485   54.8121
     N     27.47900000     13.73300000     19.53700000   -0.2285  119.8533
     N     28.51900000     13.96700000     21.55000000   -0.0630  198.5221
     H     27.85100000     16.37300000     18.19200000    0.0491   29.2112
     H     27.14900000     19.26800000     18.86300000    0.0098   29.7042
     H     26.03200000     17.98500000     18.28500000    0.0256   30.2939
     H     27.54500000     17.79200000     20.94900000    0.0089   30.7909
     H     25.90200000     18.50300000     20.79700000    0.0120   29.2128
     H     25.04200000     16.33600000     20.80100000    0.0170   28.1774
     H     25.87400000     16.05900000     19.23400000    0.0549   28.0947
     H     27.21900000     15.86700000     21.84800000    0.0981   30.1923
     H     28.09800000     12.94800000     19.51000000    0.0500   28.0930
     H     29.05600000     13.14900000     21.34300000    0.1087   29.1993
     H     28.65600000     14.45000000     22.41500000    0.0763   29.3311
     H     29.02550000     17.55440000     18.87180000    0.0177   30.7634
     H     28.30110000     17.84390000     17.27160000    0.0227   30.3571
