26
chgs=0 nmr=1 
     C     36.67100000     34.29600000     27.08900000    0.1141   38.3641
     O     37.30500000     33.23300000     26.79500000   -0.3164 -102.7619
     N     40.29400000     34.41200000     29.04500000   -0.0751  129.5865
     C     40.87300000     33.80200000     30.25300000   -0.0223  143.8227
     C     41.76500000     34.82900000     30.94400000    0.0115   28.7544
     O     42.94500000     34.99400000     30.58300000   -0.2381  -39.4241
     C     41.65100000     32.52900000     29.92300000    0.0086  173.8492
     N     37.19700000     35.39700000     27.51300000   -0.0512  124.3099
     C     38.66800000     35.50200000     27.68000000   -0.0151  142.1734
     C     39.07600000     34.93100000     29.03100000    0.0619   31.3408
     O     38.29700000     34.94600000     29.99600000   -0.2536  -29.9115
     C     39.08000000     36.94100000     27.40600000    0.0162  171.6823
     N     41.16500000     35.53100000     31.89800000    0.0006  163.2033
     H     40.83900000     34.43500000     28.20700000    0.1210   26.9132
     H     40.05800000     33.53600000     30.94300000    0.0279   26.9596
     H     41.23700000     32.10900000     28.99400000    0.0288   30.5726
     H     42.70300000     32.80600000     29.76300000    0.0454   28.9037
     H     36.61300000     36.17900000     27.72900000    0.1208   27.0298
     H     39.13700000     34.87600000     26.90700000    0.0326   26.9057
     H     38.22400000     37.57700000     27.67600000    0.0226   30.4919
     H     39.92700000     37.16400000     28.07100000    0.0342   30.1845
     H     40.19900000     35.35100000     32.08500000    0.1206   26.7325
     H     35.58340000     34.20810000     26.95000000   -0.0042   22.8414
     H     41.61990000     31.74470000     30.69360000    0.0398   30.1023
     H     39.38550000     37.22990000     26.38950000    0.0517   29.7309
     H     41.63180000     36.23060000     32.43900000    0.1175   27.5756
