29
chgs=0 nmr=1 
     C     37.22000000     32.82200000      8.82700000   -0.0936  178.3603
     C     32.99500000     35.88300000      9.93400000   -0.0311  171.5964
     C     33.30600000     34.38100000      9.84000000   -0.1160  166.6591
     C     36.35100000     33.61300000      7.83800000   -0.0930  179.6970
     C     33.81400000     30.39000000      9.03000000   -0.1881  193.6513
     C     34.53500000     34.02800000     10.72000000   -0.0772  166.9711
     C     34.22800000     30.63000000     13.31900000   -0.1819  193.9230
     H     36.84100000     31.79300000      8.91200000    0.0325   30.4394
     H     37.19200000     33.30600000      9.81400000    0.0303   30.2667
     H     33.82000000     36.38500000      9.40700000    0.0131   30.4182
     H     32.43400000     33.80800000     10.18800000    0.0267   29.8096
     H     33.52200000     34.12000000      8.79300000    0.0372   29.6069
     H     35.32500000     33.67300000      8.23000000    0.0263   29.9907
     H     36.76200000     34.62700000      7.73100000    0.0286   30.4619
     H     34.52800000     30.11100000      9.81900000    0.0510   30.9340
     H     34.30900000     30.32700000      8.05000000    0.0448   31.0105
     H     33.46500000     31.41900000      9.19900000    0.0551   30.8923
     H     34.74500000     32.95100000     10.64200000    0.0418   29.9050
     H     35.41000000     34.59800000     10.37300000    0.0378   30.3243
     H     34.32100000     34.28500000     11.76800000    0.0263   30.3778
     H     33.94700000     31.51600000     12.73100000    0.0473   30.9413
     H     34.13500000     29.73000000     12.69300000    0.0460   31.0219
     H     38.25370000     32.80640000      8.45130000    0.0278   30.3584
     H     32.08300000     36.17340000      9.39180000    0.0299   30.0869
     H     33.07410000     36.22850000     10.97530000    0.0251   30.5706
     H     36.33000000     33.12780000      6.85100000    0.0265   30.4461
     H     32.95510000     29.70310000      9.05180000    0.0406   31.0103
     H     35.26830000     30.73260000     13.66130000    0.0442   31.0287
     H     33.56150000     30.54100000     14.18960000    0.0418   31.0254
