15
chgs=0 nmr=1 
     C     29.41200000     30.79600000     24.59800000   -0.0537  171.5856
     C     29.27100000     31.31400000     26.01600000    0.0865  152.8000
     N     27.87500000     31.31700000     26.44300000   -0.1271  188.1460
     C     27.13200000     32.42300000     26.57400000   -0.1226   49.5129
     N     27.63000000     33.65600000     26.46100000   -0.2322  109.6735
     N     25.81000000     32.29900000     26.73200000   -0.0269  200.4786
     H     28.75300000     31.37500000     23.93500000    0.0385   30.2723
     H     29.12000000     29.73600000     24.57000000    0.0105   30.6275
     H     29.85100000     30.66900000     26.69200000    0.0134   28.8361
     H     29.66200000     32.34100000     26.06300000    0.0494   27.0319
     H     27.44700000     30.43800000     26.65100000    0.0960   29.5345
     H     26.91600000     34.35400000     26.51200000    0.0508   27.6322
     H     25.23100000     33.11400000     26.76200000    0.1096   28.7869
     H     25.40000000     31.39100000     26.82000000    0.0808   29.1217
     H     30.45110000     30.89380000     24.25040000    0.0271   30.4041
