33
chgs=0 nmr=1 
     C     35.59600000     26.71500000     15.73600000   -0.0314  167.6635
     C     36.97500000     26.82600000     15.10700000   -0.0277   25.2709
     O     37.57900000     27.92600000     15.15900000   -0.2812  -35.4509
     C     36.01200000     30.86000000     19.22100000   -0.0054  170.0279
     C     36.08300000     30.19400000     17.87500000   -0.0698   31.5607
     O     35.04800000     29.70200000     17.39300000   -0.2716  -58.8395
     N     38.88300000     30.11000000     13.71300000    0.0193  164.0440
     N     37.22800000     30.12600000     17.23300000    0.0007  162.0218
     N     37.49900000     25.74300000     14.57100000    0.0092  162.6171
     C     38.14800000     30.98100000     13.06900000   -0.0945   29.0430
     O     38.54400000     32.15000000     12.85600000   -0.2722  -80.4060
     C     35.70800000     30.77600000     13.80600000   -0.0975  167.0440
     C     36.73100000     30.57000000     12.64500000    0.0467  150.9793
     C     35.87400000     32.13800000     14.51200000   -0.0279  175.2579
     H     35.14500000     27.71800000     15.76300000    0.0845   27.8766
     H     35.81700000     31.93400000     19.08500000    0.0598   29.2385
     H     36.97000000     30.72500000     19.74400000    0.0140   29.8494
     H     38.52700000     29.20100000     13.93100000    0.0910   25.2814
     H     37.27600000     29.67300000     16.34300000    0.1172   25.1938
     H     38.05100000     30.52700000     17.63500000    0.1006   27.3322
     H     36.99800000     24.88000000     14.63700000    0.1215   26.9912
     H     35.89000000     29.98800000     14.55100000    0.0288   29.1390
     H     36.42300000     31.20600000     11.80200000    0.0216   29.5479
     H     35.13000000     32.22700000     15.31700000    0.0273   30.3827
     H     36.88600000     32.20900000     14.93800000    0.0289   30.3040
     H     35.72500000     32.94900000     13.78400000    0.0235   30.4347
     H     34.95080000     26.04660000     15.14690000    0.0285   29.7611
     H     35.68160000     26.34670000     16.76900000    0.0665   29.2234
     H     35.20410000     30.41700000     19.82190000    0.0476   29.7091
     H     39.80890000     30.37590000     13.98150000    0.1026   27.5675
     H     38.38120000     25.75530000     14.10030000    0.1225   27.3060
     H     34.66770000     30.67340000     13.46370000    0.0180   30.0173
     H     36.79070000     29.52500000     12.30690000   -0.0011   29.3568
