31
chgs=0 nmr=1 
     N     34.73400000     25.82200000     14.94900000   -0.1114  125.7119
     C     35.59600000     26.71500000     15.73600000    0.0589  128.7859
     C     36.97500000     26.82600000     15.10700000   -0.0130   27.3939
     O     37.57900000     27.92600000     15.15900000   -0.2554  -62.9348
     C     35.71500000     26.20300000     17.17200000   -0.0483  149.9185
     C     34.34300000     26.44500000     17.89800000   -0.0532  159.7116
     C     34.50900000     26.07700000     19.36000000   -0.0069  171.8977
     N     35.13900000     21.62400000     14.66200000   -0.0036  164.2374
     C     34.44100000     26.09900000     13.68400000    0.1272   43.4844
     C     35.03100000     21.72200000     17.06900000   -0.0332  168.6005
     C     35.61500000     22.19000000     15.75900000   -0.0456   28.4201
     O     36.53200000     23.04600000     15.72400000   -0.2554  -63.9216
     N     37.49900000     25.74300000     14.57100000    0.0161  171.1844
     O     34.88300000     27.09000000     13.09300000   -0.2510  -92.3621
     H     34.36300000     24.99500000     15.37200000    0.1091   27.4288
     H     35.14500000     27.71800000     15.76300000    0.0273   27.6209
     H     35.94800000     25.12800000     17.16500000    0.0223   29.4396
     H     36.51400000     26.74800000     17.69600000    0.0374   29.6880
     H     34.05700000     27.50400000     17.81100000    0.0276   30.0856
     H     33.56400000     25.81600000     17.44200000   -0.0009   29.9524
     H     34.78800000     25.01600000     19.43700000    0.0143   30.5373
     H     35.30300000     26.69700000     19.80200000    0.0304   30.2856
     H     34.42500000     20.93200000     14.76600000    0.1146   27.2146
     H     35.24600000     22.46200000     17.85400000    0.0656   29.3942
     H     36.99800000     24.88000000     14.63700000    0.0891   25.9859
     H     33.57070000     26.24550000     19.90870000    0.0240   30.0983
     H     35.44610000     21.84260000     13.73580000    0.1263   27.2884
     H     33.78620000     25.37640000     13.17490000   -0.0342   23.4170
     H     33.94390000     21.57830000     16.98180000    0.0378   29.5434
     H     35.48830000     20.75920000     17.34080000    0.0714   29.0223
     H     38.38120000     25.75530000     14.10030000    0.1126   27.8206
