33
chgs=0 nmr=1 
     N     30.79500000     37.01500000     10.09500000   -0.1067  120.7608
     C     31.72000000     36.28900000      9.17600000    0.0593  142.5163
     C     30.95500000     35.21100000      8.45900000    0.0226   29.2238
     O     30.02500000     34.61800000      9.04000000   -0.2737  -50.6205
     C     32.99500000     35.88300000      9.93400000   -0.0189  164.6355
     C     33.30600000     34.38100000      9.84000000   -0.0285  178.3898
     N     31.24400000     34.98600000      7.19700000   -0.0501  129.9369
     C     30.50500000     33.88400000      6.51200000   -0.0677  128.4911
     C     31.40900000     32.68000000      6.44600000    0.0724   21.8871
     O     32.61900000     32.81200000      6.12500000   -0.2817  -47.5856
     C     30.09100000     34.39300000      5.07800000    0.0930  116.2103
     O     31.44000000     34.51300000      4.48700000   -0.2946  265.7331
     C     29.42000000     35.75600000      5.11900000    0.0553  169.9513
     N     30.88400000     31.48500000      6.66600000    0.0356  159.7008
     C     30.49400000     38.26100000      9.72900000    0.1389   44.6883
     O     30.84900000     38.85000000      8.70600000   -0.2713  -52.6278
     H     30.42700000     36.59700000     10.92600000    0.1231   26.0786
     H     32.03600000     37.01200000      8.41000000    0.0232   25.6384
     H     33.82000000     36.38500000      9.40700000    0.0233   29.1224
     H     32.43400000     33.80800000     10.18800000    0.0364   30.3357
     H     33.52200000     34.12000000      8.79300000    0.0335   30.2805
     H     31.93100000     35.53000000      6.71500000    0.1225   25.3589
     H     29.59500000     33.63500000      7.07700000    0.0240   26.2712
     H     29.47000000     33.64700000      4.56000000    0.0091   27.4328
     H     32.04400000     33.95000000      4.95800000    0.1329   27.0230
     H     29.15200000     36.06400000      4.09800000    0.0435   29.8661
     H     28.51000000     35.69800000      5.73500000    0.0290   30.5775
     H     30.11200000     36.49200000      5.55400000    0.0317   29.9146
     H     29.90500000     31.41600000      6.85800000    0.1202   26.8019
     H     33.07410000     36.22850000     10.97530000    0.0207   30.1095
     H     34.17690000     34.13080000     10.46360000    0.0284   30.6276
     H     31.43200000     30.64880000      6.64730000    0.1296   26.9348
     H     29.80890000     38.80720000     10.39400000   -0.0149   23.5427
