23
chgs=0 nmr=1 
     C     34.73800000     30.87500000     21.47300000    0.1112  149.5920
     C     33.58900000     30.18900000     22.18100000   -0.0193   36.4056
     O     33.58000000     29.00900000     22.49900000   -0.2175  -46.5733
     C     38.36500000     29.33500000     24.15900000    0.1441   39.2856
     O     37.68400000     29.39000000     25.22100000   -0.2773 -113.0128
     N     38.41900000     30.37300000     23.34100000   -0.1274  128.4588
     C     37.73800000     31.63700000     23.71200000    0.0103  136.2354
     C     36.33400000     31.74200000     23.08700000    0.0281   32.7102
     O     35.57400000     32.61800000     23.48300000   -0.2431  -25.8001
     C     38.52800000     32.85400000     23.18200000   -0.0014  168.2797
     N     32.47800000     30.91700000     22.26900000   -0.0280  159.6008
     N     36.00000000     30.86000000     22.17200000   -0.0601  164.7395
     H     34.44500000     31.92400000     21.31900000    0.0069   27.6765
     H     38.91700000     30.30600000     22.47600000    0.1126   27.2156
     H     37.65300000     31.71100000     24.80600000    0.0661   26.2409
     H     38.63400000     32.78100000     22.09000000    0.0128   30.6844
     H     37.99600000     33.78200000     23.43800000    0.0599   29.3802
     H     32.49800000     31.87600000     21.98800000    0.1119   27.1201
     H     36.65600000     30.13900000     21.94800000    0.0997   26.0650
     H     34.83590000     30.42250000     20.47520000    0.0485   28.5556
     H     38.86900000     28.41650000     23.82390000   -0.0001   23.1958
     H     39.52240000     32.85400000     23.65240000    0.0412   30.1659
     H     31.62410000     30.52410000     22.61040000    0.1210   27.7171
