33
chgs=0 nmr=1 
     C     31.72000000     36.28900000      9.17600000    0.1716  152.2412
     C     30.95500000     35.21100000      8.45900000   -0.0531   32.0583
     O     30.02500000     34.61800000      9.04000000   -0.2726  -60.6550
     C     32.99500000     35.88300000      9.93400000   -0.1982  156.6973
     C     33.30600000     34.38100000      9.84000000   -0.0295  163.8758
     C     33.10900000     36.38100000     11.43500000   -0.0147  167.5318
     C     34.53500000     34.02800000     10.72000000   -0.0196  170.5475
     C     36.35100000     33.61300000      7.83800000   -0.1683  192.8796
     N     30.88400000     31.48500000      6.66600000    0.0042  162.9193
     N     31.24400000     34.98600000      7.19700000   -0.0906  140.0766
     C     30.50500000     33.88400000      6.51200000    0.1343  147.6988
     C     31.40900000     32.68000000      6.44600000   -0.0304   27.5526
     O     32.61900000     32.81200000      6.12500000   -0.2672  -67.8120
     H     32.03600000     37.01200000      8.41000000   -0.0136   29.1640
     H     33.82000000     36.38500000      9.40700000    0.0016   29.5722
     H     32.43400000     33.80800000     10.18800000    0.0292   30.1738
     H     33.52200000     34.12000000      8.79300000    0.0359   29.4378
     H     34.05800000     36.03000000     11.86700000    0.0307   29.2730
     H     33.08000000     37.48000000     11.46000000    0.0189   30.4817
     H     32.26900000     35.97900000     12.02000000    0.0345   30.7745
     H     34.74500000     32.95100000     10.64200000    0.0209   30.4190
     H     35.41000000     34.59800000     10.37300000    0.0294   30.8489
     H     34.32100000     34.28500000     11.76800000    0.0298   29.7537
     H     35.32500000     33.67300000      8.23000000    0.0443   30.6174
     H     36.76200000     34.62700000      7.73100000    0.0328   31.1776
     H     29.90500000     31.41600000      6.85800000    0.1139   27.1633
     H     31.93100000     35.53000000      6.71500000    0.1176   26.0424
     H     29.59500000     33.63500000      7.07700000    0.0312   26.3739
     H     31.03820000     36.82410000      9.85340000    0.0186   29.3397
     H     36.97340000     33.04650000      8.54630000    0.0370   31.1450
     H     36.33000000     33.12780000      6.85100000    0.0456   30.8689
     H     31.43200000     30.64880000      6.64730000    0.1238   27.3204
     H     30.21620000     34.23900000      5.51170000    0.0516   28.4196
