30
chgs=0 nmr=1 
     C     28.60500000     33.96500000     12.50300000    0.0766  135.4700
     C     28.63800000     35.46100000     12.90000000   -0.0504   33.4700
     O     29.52200000     36.10300000     12.32000000   -0.2664  -14.0071
     C     29.96300000     33.31700000     12.81400000   -0.1697  157.9718
     C     30.21100000     33.39400000     14.30400000   -0.0206  163.6809
     C     29.95700000     31.83800000     12.35200000    0.0258  162.9102
     C     30.92500000     34.30400000     17.75300000   -0.1767  192.8048
     N     29.42600000     38.43000000     15.44600000   -0.0309  156.7589
     N     27.75100000     35.86700000     13.74000000   -0.0534  148.9333
     C     27.69100000     37.31500000     14.14300000    0.1385  147.0048
     C     28.46900000     37.47500000     15.42000000   -0.0064   27.4218
     O     28.21300000     36.75300000     16.41100000   -0.2520  -69.3489
     H     27.82500000     33.46000000     13.09200000   -0.0297   30.5527
     H     30.75600000     33.85900000     12.27900000    0.0302   29.1871
     H     31.18200000     32.93300000     14.53900000    0.0271   30.3272
     H     30.22000000     34.44800000     14.62000000    0.0492   30.0264
     H     29.41200000     32.85800000     14.83700000    0.0148   30.9665
     H     30.93100000     31.37900000     12.57700000    0.0203   30.2486
     H     29.16300000     31.29200000     12.88200000    0.0111   30.7747
     H     29.77200000     31.79300000     11.26900000    0.0179   30.2213
     H     30.79800000     33.52100000     16.99100000    0.0454   31.1458
     H     30.82500000     35.29300000     17.28200000    0.0444   31.0919
     H     29.59100000     38.99300000     14.63600000    0.1193   26.7930
     H     27.09800000     35.21600000     14.12700000    0.1255   26.1190
     H     28.13900000     37.93800000     13.35500000    0.0228   27.1565
     H     28.34310000     33.94830000     11.43480000    0.0326   28.9842
     H     30.13450000     34.19220000     18.50970000    0.0438   31.0025
     H     31.93390000     34.21800000     18.18280000    0.0320   31.2579
     H     29.96930000     38.57480000     16.27290000    0.1260   27.3417
     H     26.63020000     37.58090000     14.26120000    0.0527   28.3921
