16
chgs=0 nmr=1 
     C     24.34800000     39.29600000     14.64200000   -0.0837  148.4400
     C     23.86500000     40.72300000     14.74900000    0.0822  144.0627
     N     22.37500000     40.72000000     14.90700000   -0.2190  231.0134
     C     26.21900000     37.68400000     14.30700000   -0.0276  171.2038
     C     25.88400000     39.13900000     14.61500000   -0.0420  165.7347
     H     23.94200000     38.86500000     13.71500000    0.0043   30.3313
     H     23.96100000     38.73700000     15.50600000    0.0214   29.6504
     H     24.32800000     41.20500000     15.62300000    0.0096   28.9976
     H     24.13900000     41.27500000     13.83800000   -0.0060   28.2734
     H     22.04500000     41.66100000     14.97900000    0.0839   31.5275
     H     21.95700000     40.28000000     14.11300000    0.0843   32.2511
     H     25.70800000     37.42000000     13.36900000    0.0181   30.5475
     H     25.81700000     37.07300000     15.12800000    0.0207   30.3176
     H     26.30200000     39.41600000     15.59400000    0.0192   30.0877
     H     26.30900000     39.79000000     13.83700000    0.0127   30.1703
     H     27.27980000     37.41810000     14.18880000    0.0219   30.2202
