39
chgs=0 nmr=1 
     C     22.12600000     29.06200000     18.18300000    0.0516  144.9684
     C     20.83500000     28.62900000     18.90400000   -0.0352   35.0051
     O     20.82100000     27.73400000     19.74900000   -0.2185  -37.3988
     C     22.49400000     28.05700000     17.10900000    0.0670  153.3906
     C     21.44700000     27.86900000     16.02600000   -0.0491   55.5194
     C     21.32500000     28.81300000     15.00500000   -0.0205   68.1393
     C     20.63800000     26.73500000     16.05300000   -0.0014   63.1209
     C     20.36900000     28.64800000     14.00100000    0.0202   65.0987
     C     19.67700000     26.53900000     15.05100000    0.0251   65.7944
     C     19.59300000     27.46500000     14.02100000    0.0069   67.4914
     N     19.81000000     29.37800000     18.57800000   -0.0864  133.8374
     C     18.44300000     29.14300000     19.08300000   -0.0450  139.6858
     C     18.45300000     28.94100000     20.59100000   -0.0319   36.1938
     O     17.86000000     27.99400000     21.12800000   -0.1976  -64.6586
     C     17.86400000     27.97700000     18.34600000    0.0471  173.0881
     N     19.17200000     29.80800000     21.24300000    0.0346  178.0394
     C     18.79100000     24.22100000     20.31300000   -0.0044  157.3351
     N     17.44000000     24.65500000     20.82700000   -0.2402  243.1014
     H     21.95700000     30.04300000     17.71400000   -0.0140   29.7306
     H     23.42500000     28.39400000     16.63000000    0.0223   28.6862
     H     22.66300000     27.08400000     17.59400000    0.0280   28.5264
     H     21.97400000     29.67600000     14.99200000   -0.0303   24.4123
     H     20.75100000     26.00800000     16.84400000   -0.0112   24.3401
     H     20.22700000     29.39700000     13.23600000   -0.0144   24.0827
     H     19.01600000     25.68500000     15.08000000   -0.0118   24.1885
     H     18.91100000     27.27600000     13.20500000   -0.0123   24.4531
     H     19.96200000     30.14700000     17.95600000    0.1131   26.8379
     H     17.83100000     30.03000000     18.86300000    0.0283   28.7288
     H     16.84300000     27.78400000     18.70800000    0.0357   30.1162
     H     17.83500000     28.20100000     17.27000000    0.0129   31.6211
     H     18.48800000     27.08800000     18.51900000    0.0564   29.6709
     H     19.62500000     30.50400000     20.68600000    0.0879   27.5411
     H     19.25900000     25.03600000     19.74100000    0.0508   28.5895
     H     18.68500000     23.33500000     19.66900000   -0.0059   28.5930
     H     16.84800000     24.88700000     20.05500000    0.0819   32.1029
     H     17.02800000     23.91000000     21.35100000    0.0797   32.1279
     H     22.88480000     29.15540000     18.97390000    0.0374   29.1069
     H     19.33040000     29.86800000     22.22850000    0.1147   27.7480
     H     19.40150000     23.97770000     21.19510000    0.0284   28.8638
