27
chgs=0 nmr=1 
     N     40.11700000     31.75000000      9.98800000   -0.1556  128.7255
     C     39.80800000     32.99400000      9.23300000    0.0712  137.9084
     C     39.83700000     34.27100000      9.99500000   -0.0142   26.0581
     O     40.16400000     35.32300000      9.34500000   -0.2743 -100.2193
     C     38.61500000     32.80100000      8.32000000   -0.0504  154.4774
     C     37.22000000     32.82200000      8.82700000    0.0183  170.0286
     C     36.35100000     33.61300000      7.83800000   -0.0573  151.3977
     C     36.32200000     32.94400000      6.47700000    0.0420  146.8619
     N     35.76800000     33.94500000      5.48900000   -0.2170  229.9156
     N     39.65500000     34.33500000     11.28500000    0.0425  169.4693
     C     41.39900000     31.33800000      9.96700000    0.1610   39.3516
     O     42.26000000     32.03600000      9.38100000   -0.2699 -105.3362
     H     39.41000000     31.24600000     10.48500000    0.1108   26.6007
     H     40.65200000     33.09000000      8.53400000    0.0606   24.9729
     H     38.67800000     33.59500000      7.56100000    0.0567   29.0264
     H     38.75200000     31.82100000      7.83900000    0.0251   29.5933
     H     36.84100000     31.79300000      8.91200000   -0.0000   30.3710
     H     37.19200000     33.30600000      9.81400000   -0.0043   30.3053
     H     35.32500000     33.67300000      8.23000000    0.0044   29.7605
     H     36.76200000     34.62700000      7.73100000    0.0429   30.0415
     H     37.34000000     32.64900000      6.18200000    0.0235   28.6839
     H     35.67700000     32.05300000      6.51000000   -0.0031   28.5217
     H     35.73600000     33.53300000      4.57900000    0.0847   31.4967
     H     34.84500000     34.21200000      5.76700000    0.0872   32.0993
     H     39.48700000     33.47600000     11.76900000    0.0888   27.3471
     H     39.66950000     35.17360000     11.82950000    0.1238   27.0643
     H     41.63080000     30.38150000     10.45830000    0.0026   23.2353
