33
chgs=0 nmr=1 
     N     31.69700000     18.31100000     20.40600000   -0.1157  157.5321
     C     31.56800000     16.96200000     19.82500000    0.1691  147.3578
     C     30.32000000     16.69800000     19.05100000   -0.0023   32.2996
     O     30.19800000     15.65700000     18.36600000   -0.2814  -47.4706
     N     29.34000000     17.59400000     19.07600000   -0.0754  131.8429
     C     28.10800000     17.43900000     18.27600000    0.0079  132.9156
     C     28.37500000     17.99900000     16.88700000   -0.0032   28.9142
     O     29.32600000     18.78600000     16.69000000   -0.2266  -66.7198
     C     26.92600000     18.19100000     18.89200000   -0.0350  160.7351
     C     26.62100000     17.79900000     20.35200000    0.0069  175.5442
     N     27.51000000     17.68900000     15.95400000    0.0220  175.0605
     C     29.94200000     21.10600000     21.24000000    0.1095   42.5253
     O     29.47000000     20.67700000     20.19000000   -0.2564  -71.4410
     N     31.23300000     21.09000000     21.45900000   -0.0957  153.1923
     C     32.26200000     20.67000000     20.51400000    0.1114  145.7142
     C     32.12800000     19.36400000     19.75000000    0.0101   34.7507
     O     32.54600000     19.31700000     18.55800000   -0.2430  -91.0649
     H     31.43900000     18.43200000     21.36400000    0.1030   27.0883
     H     32.42200000     16.80400000     19.15000000    0.0665   26.7456
     H     31.61200000     16.23500000     20.64900000    0.0416   28.3196
     H     29.44000000     18.40200000     19.65700000    0.1190   25.6441
     H     27.85100000     16.37300000     18.19200000    0.0198   27.1575
     H     27.14900000     19.26800000     18.86300000    0.0380   29.2969
     H     26.03200000     17.98500000     18.28500000    0.0062   29.8743
     H     27.54500000     17.79200000     20.94900000    0.0078   30.4744
     H     25.90200000     18.50300000     20.79700000    0.0322   30.3051
     H     26.75900000     17.07400000     16.19600000    0.1009   27.7115
     H     31.54300000     21.39500000     22.36000000    0.1153   27.5089
     H     32.31500000     21.45700000     19.74700000    0.0590   27.1672
     H     26.18900000     16.78870000     20.30110000    0.0213   30.4216
     H     27.55320000     18.02870000     15.01450000    0.1166   27.5130
     H     29.26390000     21.50910000     22.00660000   -0.0001   23.0712
     H     33.23390000     20.70250000     21.02820000    0.0502   28.0941
