23
chgs=0 nmr=1 
     N     24.79000000     32.02100000     13.61800000   -0.0806  136.8085
     C     25.14900000     31.60900000     14.98000000    0.0988  145.9716
     C     25.69800000     32.87600000     15.66900000   -0.0764   32.2337
     O     26.15800000     33.73000000     14.89400000   -0.2518  -43.4465
     N     25.62100000     32.94500000     16.95000000    0.0510  174.9154
     C     23.21200000     32.76200000     11.89100000    0.0919  138.9171
     C     23.50900000     32.22400000     13.29000000   -0.0297   29.1428
     O     22.54400000     31.94200000     14.03400000   -0.2739  -47.9523
     C     22.69900000     34.26700000     11.98500000    0.0218  112.8100
     O     22.49500000     34.69000000     10.58900000   -0.2873  266.2402
     C     23.72700000     35.13100000     12.72200000   -0.0050  164.1916
     H     25.50600000     32.15100000     12.93200000    0.1185   25.9318
     H     24.28500000     31.20800000     15.53000000    0.0403   26.9603
     H     25.18900000     32.20800000     17.47000000    0.1198   27.2816
     H     24.14700000     32.76300000     11.31200000   -0.0098   29.7578
     H     21.74500000     34.28200000     12.53300000    0.0216   27.0842
     H     22.18600000     35.58800000     10.57200000    0.1471   32.0281
     H     23.36200000     36.16700000     12.78000000    0.0127   30.4724
     H     23.87600000     34.73700000     13.73800000    0.0528   29.9353
     H     24.68200000     35.10900000     12.17700000    0.0242   30.2942
     H     25.97710000     30.88500000     14.97070000    0.0479   28.6279
     H     25.99730000     33.74220000     17.42210000    0.1232   27.4531
     H     22.48450000     32.09600000     11.40400000    0.0431   28.6012
