25
chgs=0 nmr=1 
     C     36.67100000     34.29600000     27.08900000    0.1194   38.0775
     O     37.30500000     33.23300000     26.79500000   -0.3170 -103.1810
     N     40.29400000     34.41200000     29.04500000   -0.0014  170.7030
     N     37.19700000     35.39700000     27.51300000   -0.0474  121.3863
     C     38.66800000     35.50200000     27.68000000   -0.0399  136.6588
     C     39.07600000     34.93100000     29.03100000    0.0257   30.1158
     O     38.29700000     34.94600000     29.99600000   -0.2271  -56.0644
     C     39.08000000     36.94100000     27.40600000    0.0921  147.5013
     C     39.50200000     37.34000000     26.00200000   -0.1890  160.8522
     C     38.68400000     36.64700000     24.92300000    0.0284  168.5685
     C     39.33700000     38.85400000     25.86200000    0.0100  160.3575
     H     40.83900000     34.43500000     28.20700000    0.1119   27.3288
     H     36.61300000     36.17900000     27.72900000    0.1206   27.0342
     H     39.13700000     34.87600000     26.90700000    0.0310   26.8820
     H     38.22400000     37.57700000     27.67600000    0.0002   30.5756
     H     39.92700000     37.16400000     28.07100000    0.0156   29.2786
     H     40.56300000     37.08500000     25.86300000    0.0083   29.9117
     H     39.03200000     36.97300000     23.93200000    0.0257   30.4023
     H     38.80500000     35.55700000     25.01400000    0.0371   29.8578
     H     37.62200000     36.90900000     25.04300000    0.0092   30.7812
     H     39.63800000     39.16400000     24.85000000    0.0249   30.1335
     H     38.28400000     39.12500000     26.03100000    0.0212   30.8893
     H     39.97000000     39.36200000     26.60500000    0.0245   30.0640
     H     35.58340000     34.20810000     26.95000000   -0.0050   22.8512
     H     40.68740000     33.99760000     29.86570000    0.1212   27.6347
