27
chgs=0 nmr=1 
     N     31.11300000     20.86300000     15.86000000   -0.1354  137.3313
     C     31.28800000     22.20100000     16.41700000    0.1387  144.7931
     C     30.52000000     22.30000000     17.76400000   -0.1959  153.9197
     C     29.00600000     22.04300000     17.44200000   -0.0289  163.3937
     C     30.83200000     23.69900000     18.35800000    0.0213  171.5810
     C     28.40700000     22.94800000     16.36600000   -0.0549  182.5141
     N     27.51000000     17.68900000     15.95400000   -0.0145  160.2322
     C     28.37500000     17.99900000     16.88700000    0.1137   40.7404
     O     29.32600000     18.78600000     16.69000000   -0.2743  -52.3561
     C     31.59300000     20.55300000     14.65500000    0.1191   42.0270
     O     32.15900000     21.31100000     13.86100000   -0.2833  -64.6464
     H     30.62600000     20.16900000     16.39000000    0.1306   24.5538
     H     30.85300000     22.93800000     15.72600000    0.0200   27.9109
     H     30.88200000     21.52100000     18.45100000    0.0157   29.6704
     H     28.90200000     21.00100000     17.10700000    0.0202   29.2319
     H     28.43100000     22.19000000     18.36800000    0.0030   30.4015
     H     30.30700000     23.81600000     19.31800000    0.0200   30.5077
     H     31.91600000     23.79500000     18.51900000    0.0255   30.3652
     H     30.49400000     24.47800000     17.65800000    0.0245   30.1876
     H     27.34900000     22.68900000     16.21600000    0.0175   30.7591
     H     28.48600000     23.99800000     16.68500000    0.0259   30.5678
     H     28.95600000     22.80900000     15.42300000    0.0450   30.2228
     H     26.75900000     17.07400000     16.19600000    0.1246   27.3837
     H     32.35780000     22.42960000     16.53200000    0.0206   28.6283
     H     27.55320000     18.02870000     15.01450000    0.1315   26.9248
     H     28.18190000     17.59410000     17.89140000    0.0097   23.4849
     H     31.45430000     19.49380000     14.39250000   -0.0399   23.4714
