19
chgs=0 nmr=1 
     C     34.73800000     30.87500000     21.47300000    0.1484  152.3795
     C     34.87600000     30.23700000     20.06600000   -0.1070  158.8081
     C     36.01200000     30.86000000     19.22100000   -0.0022  158.6907
     C     36.08300000     30.19400000     17.87500000   -0.0487   30.9072
     O     35.04800000     29.70200000     17.39300000   -0.2499  -68.8104
     N     37.22800000     30.12600000     17.23300000    0.0197  168.9671
     C     36.33400000     31.74200000     23.08700000    0.1082   45.3185
     O     35.57400000     32.61800000     23.48300000   -0.2651  -79.0095
     N     36.00000000     30.86000000     22.17200000   -0.1121  144.5432
     H     34.44500000     31.92400000     21.31900000    0.0308   27.8153
     H     35.08000000     29.16300000     20.18800000    0.0254   30.0151
     H     33.92600000     30.37100000     19.52700000    0.0546   28.8933
     H     35.81700000     31.93400000     19.08500000    0.0521   29.4560
     H     36.97000000     30.72500000     19.74400000   -0.0104   29.5325
     H     37.27600000     29.67300000     16.34300000    0.1207   27.3827
     H     38.05100000     30.52700000     17.63500000    0.1061   27.4018
     H     36.65600000     30.13900000     21.94800000    0.1124   28.2240
     H     33.90320000     30.37660000     21.98740000    0.0385   28.4541
     H     37.33660000     31.66700000     23.53330000   -0.0214   23.3329
