22
chgs=0 nmr=1 
     N     29.69400000     29.43600000     21.05400000   -0.0880  124.6434
     C     28.76200000     29.57300000     19.90600000    0.0101  139.7800
     C     27.33100000     29.31700000     20.36400000    0.0254   27.8661
     O     27.10100000     28.34600000     21.09700000   -0.2380  -44.3867
     C     29.15100000     28.65500000     18.75500000   -0.0095  153.0244
     C     30.41600000     28.91200000     17.98000000    0.0057  169.3346
     C     30.20500000     30.16800000     17.12900000   -0.0589  173.2187
     C     30.21000000     30.50900000     21.65000000    0.1432   31.3155
     O     29.97800000     31.72600000     21.26900000   -0.3258 -115.8944
     N     26.43600000     30.23200000     20.00400000   -0.0070  167.8951
     H     29.93800000     28.52400000     21.38400000    0.1226   26.6100
     H     28.81600000     30.60900000     19.54100000    0.0113   26.3240
     H     29.23500000     27.64100000     19.17300000    0.0158   29.3980
     H     28.32300000     28.68600000     18.03100000    0.0101   30.2283
     H     31.24500000     29.08800000     18.68100000    0.0136   30.0916
     H     31.11700000     30.37800000     16.55200000    0.0297   30.1775
     H     29.36400000     30.00600000     16.43900000    0.0199   30.8421
     H     29.98200000     31.02200000     17.78500000    0.0433   29.9432
     H     26.73800000     30.99700000     19.43500000    0.1190   27.1532
     H     30.64830000     28.03280000     17.36110000    0.0249   29.9991
     H     30.92970000     30.37810000     22.47150000    0.0108   22.8321
     H     25.47470000     30.18950000     20.27620000    0.1217   27.6722
