18
chgs=0 nmr=1 
     C     24.62000000     34.77800000      4.85300000    0.0058   68.5169
     C     26.78600000     32.56200000      2.27000000    0.0849   45.1561
     O     27.78300000     33.16000000      1.87000000   -0.2545  -69.6338
     N     25.56200000     32.73300000      1.80600000   -0.0391  165.2404
     C     25.28800000     34.60900000      7.49900000    0.0059   65.1753
     C     24.14700000     33.96600000      7.03800000    0.0120   68.0060
     C     26.13600000     35.34600000      6.64000000    0.0037   61.7698
     C     23.81200000     34.03100000      5.67700000    0.0169   70.0928
     C     25.81000000     35.39200000      5.26700000    0.0222   64.3131
     H     24.31900000     34.89900000      3.82300000   -0.0275   24.5116
     H     25.39300000     33.39100000      1.07200000    0.1163   27.4897
     H     24.80400000     32.20400000      2.18800000    0.1166   27.6663
     H     23.51900000     33.41800000      7.72500000   -0.0133   24.3068
     H     27.00600000     35.85800000      7.02300000   -0.0073   24.0099
     H     22.94800000     33.51100000      5.29000000   -0.0204   24.3035
     H     26.45800000     35.88500000      4.55700000   -0.0014   24.0385
     H     26.85510000     31.83120000      3.08930000   -0.0182   24.0978
     H     25.58500000     34.52800000      8.55500000   -0.0028   23.9690
