23
chgs=0 nmr=1 
     C     26.29000000     29.48000000     13.96000000   -0.1807  194.3826
     N     28.26000000     33.94300000     11.09600000   -0.1117  140.3088
     C     28.60500000     33.96500000     12.50300000    0.1272  145.1320
     C     29.96300000     33.31700000     12.81400000   -0.1988  157.1229
     C     30.21100000     33.39400000     14.30400000    0.0188  167.0194
     C     29.95700000     31.83800000     12.35200000    0.0067  167.5128
     C     27.15100000     33.36200000     10.65000000    0.1255   40.8518
     O     26.35000000     32.77800000     11.39500000   -0.2800  -77.9841
     H     26.46700000     29.91100000     12.96300000    0.0577   30.7317
     H     28.87600000     34.37900000     10.44000000    0.1126   27.5867
     H     27.82500000     33.46000000     13.09200000    0.0414   27.1563
     H     30.75600000     33.85900000     12.27900000    0.0052   30.0736
     H     31.18200000     32.93300000     14.53900000    0.0259   30.1644
     H     30.22000000     34.44800000     14.62000000    0.0202   30.2648
     H     29.41200000     32.85800000     14.83700000    0.0259   30.6262
     H     30.93100000     31.37900000     12.57700000    0.0236   30.4896
     H     29.16300000     31.29200000     12.88200000    0.0350   30.7384
     H     29.77200000     31.79300000     11.26900000    0.0191   29.9133
     H     26.30460000     30.29590000     14.69760000    0.0421   30.9813
     H     27.07870000     28.73780000     14.15240000    0.0356   31.1821
     H     25.30590000     28.98870000     13.95420000    0.0401   31.0248
     H     28.62840000     35.02800000     12.78510000    0.0171   28.8023
     H     26.87370000     33.41610000      9.58690000   -0.0084   22.8458
