23
chgs=0 nmr=1 
     N     22.04500000     35.45500000     17.17300000   -0.1663  -33.5571
     C     25.69800000     32.87600000     15.66900000    0.1114   45.0596
     O     26.15800000     33.73000000     14.89400000   -0.2929  -58.7057
     N     28.52500000     34.44700000     18.18900000    0.0105  167.0832
     N     25.62100000     32.94500000     16.95000000   -0.0420  135.0661
     C     26.17900000     34.12700000     17.65000000   -0.0284  133.6869
     C     27.47500000     33.65100000     18.30400000    0.0368   26.8003
     O     27.50700000     32.58700000     18.95800000   -0.2511  -38.2180
     C     25.21400000     34.56500000     18.78000000    0.1546  156.4764
     C     23.97800000     35.12100000     18.12600000   -0.0765   72.8639
     N     23.85300000     36.43200000     17.78100000   -0.0125  108.6725
     C     22.82400000     34.51400000     17.78200000   -0.0201   69.3081
     C     22.67400000     36.62700000     17.20000000    0.0753   68.8486
     H     28.44200000     35.28300000     17.64600000    0.1129   27.2367
     H     25.18900000     32.20800000     17.47000000    0.1251   26.6139
     H     26.36900000     34.95900000     16.95600000    0.0185   26.7300
     H     24.95100000     33.70000000     19.40600000    0.0292   28.5803
     H     25.69000000     35.33700000     19.40200000    0.0099   28.8336
     H     24.54200000     37.13900000     17.94000000    0.1012   24.2528
     H     22.56500000     33.48000000     17.95500000   -0.0253   24.6325
     H     22.29600000     37.56400000     16.82000000    0.0189   24.3893
     H     25.30670000     31.97290000     15.17790000   -0.0125   23.4011
     H     29.39950000     34.24000000     18.62760000    0.1233   27.5029
