31
chgs=0 nmr=1 
     N     23.14100000     29.18700000     19.24100000   -0.1277  127.8660
     C     22.12600000     29.06200000     18.18300000    0.0073  130.4983
     C     20.83500000     28.62900000     18.90400000   -0.0098   32.9730
     O     20.82100000     27.73400000     19.74900000   -0.2287   -5.7508
     C     22.49400000     28.05700000     17.10900000    0.1194  146.4423
     C     21.44700000     27.86900000     16.02600000   -0.0577   57.9176
     C     21.32500000     28.81300000     15.00500000   -0.0256   67.2495
     C     20.63800000     26.73500000     16.05300000   -0.0037   64.3249
     C     20.36900000     28.64800000     14.00100000    0.0195   64.6810
     C     19.67700000     26.53900000     15.05100000    0.0240   66.0728
     C     19.59300000     27.46500000     14.02100000    0.0109   67.1927
     C     24.57700000     25.19000000     19.07900000   -0.1670  192.9867
     N     19.81000000     29.37800000     18.57800000    0.0178  161.9231
     C     24.10100000     30.14900000     19.19600000    0.1411   44.3776
     O     24.19600000     30.94800000     18.28700000   -0.2511  -58.8413
     H     23.12400000     28.54900000     20.01100000    0.1221   26.4944
     H     21.95700000     30.04300000     17.71400000    0.0120   27.1382
     H     23.42500000     28.39400000     16.63000000    0.0336   28.2680
     H     22.66300000     27.08400000     17.59400000    0.0392   28.4517
     H     21.97400000     29.67600000     14.99200000   -0.0143   24.1664
     H     20.75100000     26.00800000     16.84400000   -0.0131   24.3855
     H     20.22700000     29.39700000     13.23600000   -0.0116   24.0437
     H     19.01600000     25.68500000     15.08000000   -0.0132   24.2125
     H     18.91100000     27.27600000     13.20500000   -0.0118   24.4451
     H     23.81400000     25.84000000     18.62600000    0.0321   30.5276
     H     24.59000000     24.22100000     18.55800000    0.0441   30.9028
     H     24.33900000     25.03100000     20.14100000    0.0443   30.8509
     H     19.96200000     30.14700000     17.95600000    0.1189   27.6708
     H     25.56440000     25.66690000     18.99150000    0.0429   30.9959
     H     18.88390000     29.21880000     18.92010000    0.1174   28.0730
     H     24.77440000     30.16420000     20.06570000   -0.0115   23.4856
