14
chgs=0 nmr=1 
     C     35.70800000     30.77600000     13.80600000   -0.0583  160.6255
     C     34.22800000     30.63000000     13.31900000   -0.0603  160.8217
     C     35.87400000     32.13800000     14.51200000   -0.0475  175.2753
     C     33.28400000     30.50400000     14.55200000   -0.0561  173.5957
     H     35.89000000     29.98800000     14.55100000    0.0130   30.3603
     H     33.94700000     31.51600000     12.73100000    0.0183   30.3359
     H     34.13500000     29.73000000     12.69300000    0.0175   29.7098
     H     35.13000000     32.22700000     15.31700000    0.0245   29.7361
     H     36.88600000     32.20900000     14.93800000    0.0246   30.2767
     H     35.72500000     32.94900000     13.78400000    0.0251   30.7542
     H     32.24400000     30.40100000     14.20900000    0.0259   30.2337
     H     33.56500000     29.61800000     15.14000000    0.0264   30.8016
     H     33.37700000     31.40400000     15.17800000    0.0288   29.7115
     H     36.42890000     30.63080000     12.98790000    0.0182   29.7279
