49
chgs=0 nmr=1 
     N     41.18900000     32.08500000     19.03100000   -0.2510  108.0498
     C     41.46100000     30.75100000     19.59400000    0.0405  128.9967
     C     40.16800000     30.02600000     19.91800000    0.1388   27.9352
     O     39.26400000     30.66200000     20.52100000   -0.3041   -6.9546
     C     42.19500000     31.14200000     20.91300000   -0.0044  154.2425
     C     42.90400000     32.41400000     20.55300000   -0.0294  162.7778
     C     41.82200000     33.18800000     19.81300000    0.1493  138.6615
     N     40.05900000     28.75800000     19.60700000   -0.2675  118.3718
     C     38.81700000     28.02000000     19.88900000    0.1667  142.5690
     C     39.09000000     26.62900000     19.32500000   -0.0796  162.5071
     C     40.08200000     26.90400000     18.19800000   -0.0545  160.5194
     C     41.03500000     27.90900000     18.87900000    0.1360  137.8341
     C     38.36500000     29.33500000     24.15900000    0.1324   38.9449
     O     37.68400000     29.39000000     25.22100000   -0.3055  -85.5713
     N     38.41900000     30.37300000     23.34100000   -0.1508  129.5911
     C     37.73800000     31.63700000     23.71200000    0.1690  147.5230
     C     38.52800000     32.85400000     23.18200000   -0.1624  159.6739
     C     39.91900000     32.85400000     23.84000000   -0.0150  152.9752
     C     40.76000000     34.03600000     23.39400000   -0.0340   30.8421
     O     41.97500000     34.00800000     23.62400000   -0.2434  -48.1719
     C     40.44900000     32.27800000     17.94500000    0.1687   39.6718
     O     39.93600000     31.33600000     17.31500000   -0.2841  -88.7821
     N     40.14000000     35.00700000     22.77500000    0.0152  169.1303
     H     42.11200000     30.14800000     18.94400000    0.0111   27.1674
     H     41.47600000     31.30900000     21.72900000    0.0315   29.4412
     H     42.91200000     30.36200000     21.21000000    0.0251   29.3769
     H     43.23600000     32.95400000     21.45200000    0.0518   29.0598
     H     43.76900000     32.21800000     19.90300000    0.0218   29.9421
     H     41.10900000     33.65500000     20.50800000    0.0286   27.9817
     H     42.25100000     33.95800000     19.15500000    0.0271   27.9203
     H     38.00200000     28.46900000     19.30300000    0.0420   27.8907
     H     39.53200000     25.97200000     20.08900000    0.0307   29.6973
     H     38.16800000     26.17200000     18.93700000    0.0366   29.3478
     H     40.61100000     25.98900000     17.89400000    0.0310   29.5052
     H     39.58500000     27.34800000     17.32300000    0.0540   29.4190
     H     41.73000000     27.40700000     19.56800000    0.0351   28.3403
     H     41.60700000     28.49000000     18.14100000    0.0586   27.1729
     H     38.91700000     30.30600000     22.47600000    0.1255   25.3842
     H     37.65300000     31.71100000     24.80600000    0.0384   27.2153
     H     38.63400000     32.78100000     22.09000000    0.0522   29.0550
     H     37.99600000     33.78200000     23.43800000    0.0218   30.4297
     H     39.79500000     32.89900000     24.93200000    0.0492   29.5158
     H     40.44000000     31.92400000     23.56800000    0.0435   28.7611
     H     40.65400000     35.80100000     22.45000000    0.1135   27.6492
     H     39.15200000     34.95500000     22.62700000    0.1065   26.2236
     H     38.52760000     28.04050000     20.95010000    0.0373   27.9245
     H     38.86900000     28.41650000     23.82390000   -0.0170   23.3186
     H     36.73540000     31.71200000     23.26570000    0.0274   28.3343
     H     40.28750000     33.31930000     17.62930000   -0.0146   23.1968
