19
chgs=0 nmr=1 
     C     34.73800000     30.87500000     21.47300000   -0.0003  138.4565
     C     33.58900000     30.18900000     22.18100000    0.0295   31.8947
     O     33.58000000     29.00900000     22.49900000   -0.2207  -31.3717
     C     34.87600000     30.23700000     20.06600000   -0.0580  158.6125
     C     36.01200000     30.86000000     19.22100000   -0.0059  175.4026
     C     36.33400000     31.74200000     23.08700000    0.1202   44.9223
     O     35.57400000     32.61800000     23.48300000   -0.2707  -71.4804
     N     32.47800000     30.91700000     22.26900000   -0.0161  162.8459
     N     36.00000000     30.86000000     22.17200000   -0.0614  143.1241
     H     34.44500000     31.92400000     21.31900000    0.0009   27.6600
     H     35.08000000     29.16300000     20.18800000    0.0360   29.5120
     H     33.92600000     30.37100000     19.52700000    0.0274   29.7015
     H     35.81700000     31.93400000     19.08500000    0.0304   30.5559
     H     36.97000000     30.72500000     19.74400000    0.0124   30.3048
     H     32.49800000     31.87600000     21.98800000    0.1120   27.0823
     H     36.65600000     30.13900000     21.94800000    0.1187   27.5359
     H     36.06390000     30.37270000     18.23620000    0.0390   30.1798
     H     37.33660000     31.66700000     23.53330000   -0.0118   23.2916
     H     31.62410000     30.52410000     22.61040000    0.1184   27.7052
