23
chgs=0 nmr=1 
     C     22.94500000     21.95100000     17.78500000    0.0117   74.7022
     C     29.00600000     22.04300000     17.44200000   -0.1793  193.9131
     C     24.27200000     21.54400000     17.64400000    0.0035   66.7774
     C     25.05200000     21.28500000     18.77600000   -0.0353   83.3094
     C     23.20400000     21.90700000     20.19200000   -0.0118   80.5092
     C     24.51700000     21.47000000     20.03000000    0.1432   40.9501
     O     25.24800000     21.30200000     21.19100000   -0.1716  213.9942
     C     22.43700000     22.15700000     19.06500000    0.0047   65.6823
     C     26.92600000     18.19100000     18.89200000   -0.1734  191.5553
     H     28.90200000     21.00100000     17.10700000    0.0434   30.9182
     H     28.43100000     22.19000000     18.36800000    0.0406   30.9741
     H     24.69800000     21.42900000     16.65800000   -0.0171   24.5414
     H     26.07000000     20.94100000     18.66600000   -0.0484   24.8373
     H     22.79100000     22.04900000     21.18000000   -0.0211   24.7342
     H     26.12400000     21.00400000     20.97400000    0.1581   28.4004
     H     21.42600000     22.51800000     19.18200000   -0.0145   24.4297
     H     27.14900000     19.26800000     18.86300000    0.0313   30.6894
     H     26.03200000     17.98500000     18.28500000    0.0536   30.9321
     H     22.31860000     22.17170000     16.90810000   -0.0104   24.5307
     H     30.06740000     22.22320000     17.66770000    0.0481   30.8369
     H     28.57490000     22.69440000     16.66750000    0.0511   30.7964
     H     27.77560000     17.65050000     18.44920000    0.0461   30.8214
     H     26.70840000     17.91140000     19.93340000    0.0475   30.8748
