16
chgs=0 nmr=1 
     C     38.61500000     32.80100000      8.32000000   -0.0618  174.7179
     C     37.22000000     32.82200000      8.82700000   -0.0232  173.4932
     C     36.35100000     33.61300000      7.83800000   -0.0609  149.6296
     C     36.32200000     32.94400000      6.47700000    0.0449  147.0083
     N     35.76800000     33.94500000      5.48900000   -0.2216  230.0818
     H     38.67800000     33.59500000      7.56100000    0.0336   30.5545
     H     38.75200000     31.82100000      7.83900000    0.0263   30.0342
     H     36.84100000     31.79300000      8.91200000    0.0126   30.2907
     H     37.19200000     33.30600000      9.81400000    0.0149   29.8491
     H     35.32500000     33.67300000      8.23000000    0.0057   29.6631
     H     36.76200000     34.62700000      7.73100000    0.0262   30.1378
     H     37.34000000     32.64900000      6.18200000    0.0149   28.5287
     H     35.67700000     32.05300000      6.51000000   -0.0021   28.4782
     H     35.73600000     33.53300000      4.57900000    0.0827   31.5003
     H     34.84500000     34.21200000      5.76700000    0.0863   32.0751
     H     39.48140000     32.94120000      8.98310000    0.0217   30.2403
