32
chgs=0 nmr=1 
     C     39.83700000     34.27100000      9.99500000    0.1239   37.2918
     O     40.16400000     35.32300000      9.34500000   -0.3092 -116.8404
     N     39.65500000     34.33500000     11.28500000   -0.0725  135.8797
     C     39.67600000     35.54700000     12.07200000    0.0201  144.5158
     C     40.67500000     35.52700000     13.20000000    0.0011   30.2875
     O     40.81400000     36.52800000     13.91100000   -0.2417  -41.6908
     C     38.29000000     35.81400000     12.69800000    0.0047  164.2014
     C     40.26900000     30.50800000     14.11500000   -0.0418  168.3278
     C     41.09200000     30.80800000     12.85100000   -0.0497   28.7121
     O     41.82800000     31.80800000     12.68100000   -0.2645  -40.0598
     N     41.31700000     34.39300000     13.43200000   -0.1223  146.0807
     C     42.34500000     34.26900000     14.43100000    0.1500  149.7576
     C     41.94900000     34.07600000     15.84200000   -0.0327   27.8701
     O     42.82900000     34.00000000     16.73900000   -0.2612  -61.8313
     N     40.64200000     33.91600000     16.11200000   -0.0227  166.8511
     N     41.00100000     29.87800000     11.93100000    0.0113  158.8264
     H     39.48700000     33.47600000     11.76900000    0.1037   27.9745
     H     39.91600000     36.39600000     11.41500000    0.0663   25.9922
     H     38.04100000     34.96600000     13.35300000   -0.0066   30.9167
     H     38.35600000     36.73400000     13.29800000    0.0595   29.1467
     H     40.23000000     31.41000000     14.74400000    0.0266   29.6868
     H     41.07700000     33.58800000     12.89000000    0.0971   24.7527
     H     42.96700000     33.40700000     14.14900000    0.0630   27.4459
     H     42.95000000     35.18700000     14.38800000    0.0597   27.2446
     H     39.96500000     33.93300000     15.37700000    0.1054   26.3763
     H     40.44300000     29.06500000     12.10000000    0.1175   26.9903
     H     39.81560000     33.32660000      9.43140000   -0.0019   22.6546
     H     37.47370000     35.93710000     11.97100000    0.0402   30.1371
     H     39.25060000     30.21550000     13.81960000    0.0490   29.5654
     H     40.79390000     29.70730000     14.65650000    0.0792   29.1429
     H     40.35930000     33.78010000     17.06150000    0.1194   27.4939
     H     41.48510000     29.97520000     11.06140000    0.1290   27.1060
