22
chgs=0 nmr=1 
     N     24.79000000     32.02100000     13.61800000   -0.0766  129.9532
     C     25.14900000     31.60900000     14.98000000   -0.0628  138.5663
     C     25.69800000     32.87600000     15.66900000   -0.0252   28.1176
     O     26.15800000     33.73000000     14.89400000   -0.2487  -27.7201
     C     26.31000000     30.59400000     14.96700000    0.0334  157.2841
     C     26.29000000     29.48000000     13.96000000   -0.0162  169.0640
     C     24.94200000     28.80700000     13.95200000   -0.0500  176.4579
     N     25.62100000     32.94500000     16.95000000    0.0672  175.8029
     C     23.50900000     32.22400000     13.29000000    0.1500   38.9273
     O     22.54400000     31.94200000     14.03400000   -0.2931  -78.4291
     H     25.50600000     32.15100000     12.93200000    0.1201   26.3835
     H     24.28500000     31.20800000     15.53000000    0.0281   26.5167
     H     27.23500000     31.16400000     14.79900000    0.0145   29.6621
     H     26.34200000     30.12800000     15.96300000    0.0064   29.9227
     H     26.46700000     29.91100000     12.96300000    0.0026   30.1024
     H     24.94200000     27.99400000     13.21100000    0.0240   30.4180
     H     24.73300000     28.39300000     14.95000000    0.0175   30.8482
     H     24.16700000     29.54200000     13.69000000    0.0526   29.9478
     H     25.18900000     32.20800000     17.47000000    0.1182   27.2691
     H     27.07870000     28.73780000     14.15240000    0.0227   29.9675
     H     25.99730000     33.74220000     17.42210000    0.1217   27.4845
     H     23.29520000     32.61130000     12.28290000   -0.0064   23.0917
