23
chgs=0 nmr=1 
     N     24.24000000     19.23300000     12.24600000   -0.1620  161.9846
     C     26.48200000     19.28000000     14.43200000    0.1142   43.8571
     O     25.60900000     19.38800000     15.28700000   -0.2538  -75.4404
     C     22.92400000     18.58300000     12.02500000    0.1433  144.4276
     C     22.22900000     18.24400000     13.32500000   -0.0539   30.4008
     O     20.96300000     18.25300000     13.39500000   -0.2645  -77.0580
     N     22.99700000     17.97800000     14.36600000    0.0193  161.5127
     N     26.58500000     20.06300000     13.37800000   -0.1037  126.1305
     C     25.59400000     21.10900000     13.07200000    0.0315  137.4684
     C     24.24100000     20.43600000     12.85700000    0.0254   35.4533
     O     23.26400000     20.95100000     13.32900000   -0.1652  -83.9913
     C     26.08400000     21.88800000     11.83300000   -0.0165  171.7057
     H     25.09100000     18.79700000     11.95400000    0.1016   26.3662
     H     22.28300000     19.29200000     11.48000000    0.0500   27.5876
     H     23.99100000     18.00600000     14.25900000    0.0944   26.6116
     H     27.36400000     19.94300000     12.76300000    0.1124   27.1291
     H     25.51600000     21.80500000     13.92000000    0.0478   27.2775
     H     26.14900000     21.16800000     11.00400000    0.0143   30.5639
     H     25.31800000     22.64300000     11.60300000    0.0601   29.7895
     H     27.25840000     18.50640000     14.52510000   -0.0122   23.4730
     H     23.02070000     17.68240000     11.40090000    0.0459   28.2921
     H     22.60770000     17.74940000     15.25830000    0.1228   27.3714
     H     27.04990000     22.41200000     11.88270000    0.0491   30.0901
