36
chgs=0 nmr=1 
     C     31.92300000     20.43600000      8.75500000    0.1527   38.0729
     O     32.49300000     19.37400000      8.45600000   -0.2706 -106.4449
     O     31.83800000     21.40200000      7.96800000   -0.0487  155.4530
     C     29.27900000     23.22700000      5.64100000    0.1134   42.3649
     O     28.47800000     23.52200000      4.72500000   -0.2875  -53.0559
     N     29.38000000     22.05700000      6.23200000   -0.0869  130.3433
     C     28.46800000     20.94000000      5.98000000   -0.0103  142.3139
     C     27.81900000     20.60900000      7.31600000    0.0885   33.5085
     O     28.44900000     20.67400000      8.36000000   -0.2561  -20.3584
     C     29.21300000     19.69700000      5.50600000    0.0059  160.7848
     C     29.72800000     19.75500000      4.06000000    0.0205  151.4904
     C     28.75400000     20.06100000      2.97800000    0.0941   -3.0615
     O     27.54600000     19.99200000      2.98500000   -0.1729 -301.8078
     N     26.55900000     20.22000000      7.28800000   -0.2922  131.6008
     C     25.82900000     19.82500000      8.49400000    0.1741  142.4661
     C     24.46900000     19.33200000      7.95200000   -0.0734  162.3608
     C     24.29900000     20.13400000      6.70400000   -0.0450  161.6318
     C     25.71400000     20.10800000      6.07300000    0.1230  135.9918
     H     32.26600000     21.18200000      7.14900000    0.1595   25.9342
     H     30.12100000     21.92300000      6.89000000    0.1041   26.0936
     H     27.69800000     21.22000000      5.24600000    0.0484   25.6547
     H     30.07700000     19.54500000      6.16900000    0.0163   30.4489
     H     28.53000000     18.83800000      5.59000000    0.0288   29.5345
     H     30.51000000     20.52800000      4.02300000    0.0293   28.7695
     H     30.17100000     18.77400000      3.83200000    0.0620   29.1473
     H     25.66900000     20.69300000      9.15000000    0.0335   28.1445
     H     24.49800000     18.25500000      7.73000000    0.0287   29.6700
     H     23.65900000     19.53700000      8.66800000    0.0307   29.3842
     H     23.56000000     19.67000000      6.03400000    0.0298   29.3669
     H     23.98900000     21.16400000      6.93600000    0.0382   29.5739
     H     25.90100000     19.16700000      5.53500000    0.0358   27.8995
     H     25.87000000     20.95700000      5.39100000    0.0674   27.2156
     H     31.36200000     20.49370000      9.69940000    0.0447   23.3571
     H     30.00160000     23.95610000      6.03630000   -0.0172   23.7168
     H     29.25650000     20.37350000      2.05070000   -0.0028   21.7070
     H     26.34830000     19.02780000      9.04610000    0.0344   27.9461
