19
chgs=0 nmr=1 
     C     26.34400000     29.05000000      8.64500000   -0.0512  172.5246
     C     27.81000000     28.74800000      8.99900000   -0.0863  168.5134
     C     26.29000000     29.48000000     13.96000000   -0.0997  179.5336
     C     27.96700000     28.08700000     10.41700000   -0.0760  169.2011
     C     27.39300000     28.44200000     14.22900000   -0.0922  179.5127
     H     25.87900000     29.50700000      9.53100000    0.0169   30.6229
     H     28.22100000     28.06200000      8.24300000    0.0240   29.8562
     H     28.37700000     29.69100000      8.98500000    0.0228   29.9550
     H     26.46700000     29.91100000     12.96300000    0.0307   30.2325
     H     29.03100000     27.89400000     10.61600000    0.0290   30.1295
     H     27.56800000     28.76600000     11.18400000    0.0380   30.4096
     H     27.41100000     27.13800000     10.44300000    0.0297   30.3559
     H     27.34200000     27.64700000     13.47100000    0.0385   30.3622
     H     28.37700000     28.93200000     14.18100000    0.0307   30.4271
     H     27.24900000     28.00500000     15.22800000    0.0291   30.3504
     H     26.26570000     29.77390000      7.82050000    0.0263   30.1865
     H     25.74960000     28.15870000      8.39550000    0.0263   30.3769
     H     26.30460000     30.29590000     14.69760000    0.0309   30.3908
     H     25.30590000     28.98870000     13.95420000    0.0326   30.3909
