31
chgs=0 nmr=1 
     N     41.18900000     32.08500000     19.03100000   -0.3028  121.0283
     C     41.46100000     30.75100000     19.59400000    0.1844  143.4306
     C     42.19500000     31.14200000     20.91300000   -0.0897  159.5050
     C     42.90400000     32.41400000     20.55300000   -0.0360  163.1610
     C     41.82200000     33.18800000     19.81300000    0.1196  133.2402
     C     40.22600000     33.71600000     17.50900000    0.0144  151.7187
     C     40.44900000     32.27800000     17.94500000    0.0408   30.8869
     C     40.76000000     34.03600000     23.39400000    0.0792   42.9109
     O     41.97500000     34.00800000     23.62400000   -0.2612  -75.9475
     N     40.14000000     35.00700000     22.77500000   -0.0226  166.4613
     C     38.14600000     33.93200000     19.02700000   -0.0522  175.1193
     O     39.93600000     31.33600000     17.31500000   -0.2673  -59.6705
     C     38.69300000     34.10600000     17.59500000   -0.0708  161.9694
     H     42.11200000     30.14800000     18.94400000    0.0351   28.1939
     H     41.47600000     31.30900000     21.72900000    0.0265   29.8131
     H     42.91200000     30.36200000     21.21000000    0.0263   29.4345
     H     43.23600000     32.95400000     21.45200000    0.0419   29.3438
     H     43.76900000     32.21800000     19.90300000    0.0273   29.9802
     H     41.10900000     33.65500000     20.50800000    0.0198   28.1795
     H     42.25100000     33.95800000     19.15500000    0.0458   27.5188
     H     40.79400000     34.38800000     18.16900000   -0.0012   28.6599
     H     40.65400000     35.80100000     22.45000000    0.1227   27.2869
     H     39.15200000     34.95500000     22.62700000    0.1273   27.3935
     H     37.08200000     34.21100000     19.05000000    0.0286   30.3468
     H     38.25700000     32.88200000     19.33700000    0.0482   30.2158
     H     38.70900000     34.57900000     19.71600000    0.0007   30.9463
     H     38.14400000     33.41300000     16.94100000    0.0392   29.3903
     H     40.52370000     30.22540000     19.82890000    0.0307   27.8475
     H     40.53700000     33.86550000     16.46450000    0.0339   29.3035
     H     40.15040000     33.17930000     23.71730000   -0.0065   23.2748
     H     38.53620000     35.12310000     17.20650000    0.0177   29.9861
