21
chgs=0 nmr=1 
     N     31.11300000     20.86300000     15.86000000   -0.1292  138.2875
     C     31.28800000     22.20100000     16.41700000    0.1358  145.4855
     C     30.52000000     22.30000000     17.76400000   -0.2042  153.6009
     C     29.00600000     22.04300000     17.44200000   -0.0194  162.5442
     C     30.83200000     23.69900000     18.35800000    0.0185  171.7817
     C     28.40700000     22.94800000     16.36600000   -0.0570  182.9390
     C     31.59300000     20.55300000     14.65500000    0.1249   42.4923
     O     32.15900000     21.31100000     13.86100000   -0.2663  -79.1007
     H     30.62600000     20.16900000     16.39000000    0.1214   27.5214
     H     30.85300000     22.93800000     15.72600000    0.0311   27.7912
     H     30.88200000     21.52100000     18.45100000    0.0170   29.7534
     H     28.90200000     21.00100000     17.10700000    0.0029   29.8333
     H     28.43100000     22.19000000     18.36800000    0.0195   29.9607
     H     30.30700000     23.81600000     19.31800000    0.0274   30.3941
     H     31.91600000     23.79500000     18.51900000    0.0309   30.3115
     H     30.49400000     24.47800000     17.65800000    0.0300   30.1464
     H     27.34900000     22.68900000     16.21600000    0.0320   30.5041
     H     28.48600000     23.99800000     16.68500000    0.0335   30.4849
     H     28.95600000     22.80900000     15.42300000    0.0477   30.1863
     H     32.35780000     22.42960000     16.53200000    0.0309   28.5241
     H     31.45430000     19.49380000     14.39250000   -0.0274   23.5694
