18
chgs=0 nmr=1 
     C     21.07900000     21.14900000     16.25100000   -0.0178  169.0963
     C     22.08500000     22.25400000     16.58100000    0.0155  154.8172
     C     22.94500000     21.95100000     17.78500000   -0.0286   51.3845
     C     24.27200000     21.54400000     17.64400000   -0.0116   67.0905
     C     22.43700000     22.15700000     19.06500000   -0.0071   67.4303
     C     25.05200000     21.28500000     18.77600000    0.0282   69.8482
     C     23.20400000     21.90700000     20.19200000    0.0140   66.6689
     C     24.51700000     21.47000000     20.03000000    0.0093   70.3952
     H     20.48400000     20.94600000     17.15300000    0.0221   30.2022
     H     22.74300000     22.39600000     15.71100000    0.0094   28.9583
     H     21.52900000     23.18300000     16.77600000    0.0193   28.6684
     H     24.69800000     21.42900000     16.65800000   -0.0313   24.4513
     H     21.42600000     22.51800000     19.18200000   -0.0321   24.4190
     H     26.07000000     20.94100000     18.66600000   -0.0187   24.4049
     H     22.79100000     22.04900000     21.18000000   -0.0199   24.2896
     H     21.65630000     20.24960000     15.99060000    0.0271   30.0792
     H     20.39740000     21.46980000     15.44940000    0.0321   29.9156
     H     25.09870000     21.33630000     20.95400000   -0.0098   24.2697
