8
chgs=0 nmr=1 
     C     37.12800000     20.29300000     17.87200000   -0.0411  171.1341
     C     37.56100000     18.85100000     18.08200000   -0.0106   33.2545
     O     37.75800000     18.02400000     17.19500000   -0.2281  -49.9852
     O     37.62800000     18.59900000     19.31300000   -0.0433  149.4809
     H     37.75600000     20.74400000     17.09000000    0.0580   29.6827
     H     37.26100000     20.84600000     18.81300000    0.0402   29.5782
     H     37.85100000     17.68400000     19.43800000    0.1561   26.5609
     H     36.07360000     20.35800000     17.56530000    0.0688   29.3669
