25
chgs=0 nmr=1 
     C     31.82700000     27.26200000      2.89400000    0.0337  172.4373
     C     31.02200000     29.28800000      5.66500000    0.1180   47.2497
     N     30.31000000     25.45800000      5.38400000   -0.1044  144.6402
     C     30.28800000     24.24500000      6.19300000    0.0914  148.8261
     O     29.80900000     29.39500000      5.54500000   -0.2714  -45.4394
     C     29.90300000     24.59000000      7.66500000   -0.0817  161.4645
     C     30.86200000     25.49600000      8.38900000   -0.0286  177.6559
     N     31.83400000     28.41200000      5.12500000   -0.0916  125.7935
     C     31.22000000     27.34100000      4.27500000   -0.0143  138.8859
     C     31.44000000     26.07900000      5.08000000    0.0489   29.5608
     O     32.57600000     25.80200000      5.46100000   -0.2511   -0.3184
     H     32.92200000     27.30900000      2.98900000    0.0321   29.9949
     H     31.53900000     26.30300000      2.43900000    0.0288   30.3819
     H     29.44600000     25.83300000      5.04800000    0.1236   26.7419
     H     31.28700000     23.78400000      6.19600000    0.0401   27.5381
     H     29.89100000     23.63600000      8.21200000    0.0179   29.9323
     H     30.49800000     25.67400000      9.41200000    0.0280   30.3815
     H     31.85400000     25.02200000      8.43000000    0.0321   30.3556
     H     30.93500000     26.45400000      7.85400000    0.0413   30.2203
     H     32.82200000     28.45600000      5.27400000    0.1274   26.4093
     H     30.13900000     27.52500000      4.18300000    0.0169   26.5261
     H     31.49770000     28.07680000      2.23250000    0.0425   30.1162
     H     31.49180000     29.99600000      6.36360000   -0.0231   23.5760
     H     29.56540000     23.51590000      5.79770000    0.0260   28.8238
     H     28.87570000     24.98230000      7.69380000    0.0175   30.1690
