20
chgs=0 nmr=1 
     C     29.60400000     43.50700000     13.39300000   -0.0172   36.7773
     O     29.21900000     43.98100000     12.30100000   -0.2733  -28.5350
     N     30.56300000     42.62300000     13.49500000   -0.0619  150.7534
     C     31.19100000     42.01200000     12.33100000    0.1146  146.1662
     C     30.45900000     40.66600000     12.13000000   -0.0558   32.2646
     O     30.25300000     39.99100000     13.13300000   -0.2357  -34.0090
     C     30.75500000     44.35100000     16.27700000    0.1046   42.5910
     O     31.20700000     45.26800000     15.56600000   -0.2748  -93.7197
     N     30.16300000     40.33800000     10.88600000    0.0024  167.8453
     N     29.72100000     43.67300000     15.88500000   -0.1114  152.9581
     C     28.97800000     43.96000000     14.67800000    0.1526  148.4256
     H     30.87700000     42.35700000     14.40600000    0.1053   25.6681
     H     31.04300000     42.64100000     11.44100000    0.0246   27.1782
     H     30.35300000     40.96100000     10.12800000    0.1238   26.9851
     H     29.42000000     42.90600000     16.45100000    0.1172   27.2640
     H     27.99600000     43.47100000     14.76400000    0.0508   28.3763
     H     28.84100000     45.05000000     14.61900000    0.0601   27.0657
     H     32.26270000     41.79850000     12.45690000    0.0579   28.5208
     H     31.24500000     44.04910000     17.21440000   -0.0056   23.1573
     H     29.74210000     39.44470000     10.72810000    0.1219   27.6963
