24
chgs=0 nmr=1 
     C     24.34800000     39.29600000     14.64200000   -0.0819  158.8599
     C     23.86500000     40.72300000     14.74900000   -0.0005  173.1186
     O     27.28000000     39.72200000     10.99600000   -0.2786  340.9874
     N     29.42600000     38.43000000     15.44600000   -0.0353  159.7398
     C     27.69100000     37.31500000     14.14300000    0.0724  153.5918
     C     28.46900000     37.47500000     15.42000000   -0.0349   25.0405
     O     28.21300000     36.75300000     16.41100000   -0.2563  -62.4676
     C     26.21900000     37.68400000     14.30700000   -0.0470  155.4251
     C     25.88400000     39.13900000     14.61500000   -0.0267  157.7906
     H     23.94200000     38.86500000     13.71500000    0.0053   30.2813
     H     23.96100000     38.73700000     15.50600000    0.0190   29.9226
     H     24.32800000     41.20500000     15.62300000    0.0204   30.4067
     H     24.13900000     41.27500000     13.83800000    0.0168   30.4139
     H     26.38900000     39.77600000     10.67200000    0.1501   31.5355
     H     29.59100000     38.99300000     14.63600000    0.1114   26.9950
     H     28.13900000     37.93800000     13.35500000   -0.0159   29.4793
     H     25.70800000     37.42000000     13.36900000    0.0021   30.1476
     H     25.81700000     37.07300000     15.12800000    0.0271   29.3907
     H     26.30200000     39.41600000     15.59400000    0.0191   30.1340
     H     26.30900000     39.79000000     13.83700000    0.0071   30.2189
     H     22.77110000     40.72080000     14.86500000    0.0218   30.1410
     H     27.84210000     39.26790000     10.33400000    0.1603   30.7593
     H     29.96930000     38.57480000     16.27290000    0.1141   27.6834
     H     27.73490000     36.25610000     13.84830000    0.0300   29.2601
