9
chgs=0 nmr=1 
     C     17.58600000     21.28200000     13.46100000   -0.0311  169.7204
     C     16.57600000     21.25800000     12.31500000   -0.0454   28.2031
     O     15.44000000     21.81900000     12.37800000   -0.2678  -96.4410
     N     16.92400000     20.58600000     11.21600000   -0.0221  162.8991
     H     17.45300000     20.36800000     14.05800000    0.0602   29.3577
     H     17.37700000     22.16200000     14.08700000    0.0550   29.6383
     H     16.29000000     20.52600000     10.44500000    0.1190   27.4431
     H     17.81900000     20.14300000     11.16300000    0.1037   27.2984
     H     18.63490000     21.33160000     13.13340000    0.0284   29.6990
