18
chgs=0 nmr=1 
     C     29.21300000     19.69700000      5.50600000   -0.0415  161.1983
     C     29.72800000     19.75500000      4.06000000   -0.0162  165.6763
     C     28.75400000     20.06100000      2.97800000    0.0203   34.6175
     O     27.54600000     19.99200000      2.98500000   -0.2086  -45.3390
     O     29.33600000     20.42300000      1.90400000   -0.0627  143.4700
     C     29.27900000     23.22700000      5.64100000    0.1172   41.6989
     O     28.47800000     23.52200000      4.72500000   -0.2816  -62.4658
     N     29.38000000     22.05700000      6.23200000   -0.1144  135.8458
     C     28.46800000     20.94000000      5.98000000    0.0995  154.6308
     H     30.07700000     19.54500000      6.16900000    0.0080   30.4125
     H     28.53000000     18.83800000      5.59000000    0.0345   29.4553
     H     30.51000000     20.52800000      4.02300000    0.0434   28.9553
     H     30.17100000     18.77400000      3.83200000    0.0580   29.3224
     H     28.68600000     20.59300000      1.23300000    0.1600   26.2184
     H     30.12100000     21.92300000      6.89000000    0.1108   27.9409
     H     27.69800000     21.22000000      5.24600000    0.0699   26.3384
     H     30.00160000     23.95610000      6.03630000   -0.0220   23.6796
     H     27.99890000     20.70070000      6.94570000    0.0252   28.8242
