29
chgs=0 nmr=1 
     C     40.67500000     35.52700000     13.20000000   -0.0076   31.2531
     N     40.11700000     31.75000000      9.98800000   -0.1598  130.9203
     C     39.80800000     32.99400000      9.23300000    0.0765  137.1406
     C     39.83700000     34.27100000      9.99500000    0.0314   28.5655
     O     40.16400000     35.32300000      9.34500000   -0.2818  -85.8063
     C     38.61500000     32.80100000      8.32000000   -0.0490  165.6705
     C     37.22000000     32.82200000      8.82700000   -0.0210  181.9331
     N     41.31700000     34.39300000     13.43200000   -0.0007  172.6768
     N     39.65500000     34.33500000     11.28500000   -0.0584  137.5132
     C     41.39900000     31.33800000      9.96700000    0.1551   39.5465
     O     42.26000000     32.03600000      9.38100000   -0.2668 -109.8146
     C     39.67600000     35.54700000     12.07200000    0.0013  142.9289
     O     40.81400000     36.52800000     13.91100000   -0.2278  -44.2144
     C     38.29000000     35.81400000     12.69800000    0.0067  164.4360
     H     39.41000000     31.24600000     10.48500000    0.1122   26.4277
     H     40.65200000     33.09000000      8.53400000    0.0633   24.9620
     H     38.67800000     33.59500000      7.56100000    0.0451   28.6337
     H     38.75200000     31.82100000      7.83900000    0.0246   29.7369
     H     36.84100000     31.79300000      8.91200000    0.0218   30.3453
     H     37.19200000     33.30600000      9.81400000    0.0131   30.5947
     H     41.07700000     33.58800000     12.89000000    0.0866   27.1169
     H     39.48700000     33.47600000     11.76900000    0.0864   27.3261
     H     39.91600000     36.39600000     11.41500000    0.0710   26.1060
     H     38.04100000     34.96600000     13.35300000    0.0057   30.6810
     H     38.35600000     36.73400000     13.29800000    0.0595   29.1735
     H     36.59760000     33.38850000      8.11870000    0.0415   29.9732
     H     42.03150000     34.30680000     14.12630000    0.1254   27.6494
     H     41.63080000     30.38150000     10.45830000    0.0057   23.1676
     H     37.47370000     35.93710000     11.97100000    0.0399   30.1851
