14
chgs=0 nmr=1 
     C     39.91900000     32.85400000     23.84000000   -0.0277  167.9158
     C     40.76000000     34.03600000     23.39400000   -0.0810   36.5492
     O     41.97500000     34.00800000     23.62400000   -0.2465  -55.1809
     N     40.14000000     35.00700000     22.77500000    0.0085  156.8407
     C     38.68400000     36.64700000     24.92300000   -0.1676  188.4290
     H     39.79500000     32.89900000     24.93200000    0.0636   29.3096
     H     40.44000000     31.92400000     23.56800000    0.0588   29.5213
     H     40.65400000     35.80100000     22.45000000    0.1206   27.7496
     H     39.15200000     34.95500000     22.62700000    0.1142   27.2227
     H     39.03200000     36.97300000     23.93200000    0.0241   31.1014
     H     38.80500000     35.55700000     25.01400000    0.0382   30.9301
     H     37.62200000     36.90900000     25.04300000    0.0402   30.8772
     H     38.92460000     32.85400000     23.36960000    0.0027   30.1123
     H     39.27560000     37.14820000     25.70330000    0.0520   30.6026
