23
chgs=0 nmr=1 
     C     36.67100000     34.29600000     27.08900000    0.1140   38.2225
     O     37.30500000     33.23300000     26.79500000   -0.3159 -103.9481
     N     40.29400000     34.41200000     29.04500000   -0.0998  147.0821
     C     40.87300000     33.80200000     30.25300000    0.1340  145.4330
     C     41.76500000     34.82900000     30.94400000   -0.0355   31.7553
     O     42.94500000     34.99400000     30.58300000   -0.2439  -63.7873
     N     37.19700000     35.39700000     27.51300000   -0.0514  124.4350
     C     38.66800000     35.50200000     27.68000000   -0.0161  142.1469
     C     39.07600000     34.93100000     29.03100000    0.0584   30.5895
     O     38.29700000     34.94600000     29.99600000   -0.2527  -28.9988
     C     39.08000000     36.94100000     27.40600000    0.0159  171.7102
     N     41.16500000     35.53100000     31.89800000   -0.0121  164.0248
     H     40.83900000     34.43500000     28.20700000    0.1250   26.5417
     H     40.05800000     33.53600000     30.94300000    0.0332   26.9408
     H     36.61300000     36.17900000     27.72900000    0.1211   27.0037
     H     39.13700000     34.87600000     26.90700000    0.0331   26.8381
     H     38.22400000     37.57700000     27.67600000    0.0230   30.4695
     H     39.92700000     37.16400000     28.07100000    0.0345   30.1504
     H     40.19900000     35.35100000     32.08500000    0.1199   26.7698
     H     35.58340000     34.20810000     26.95000000   -0.0038   22.8517
     H     41.43310000     32.88560000     30.01540000    0.0483   28.4775
     H     39.38550000     37.22990000     26.38950000    0.0522   29.7059
     H     41.63180000     36.23060000     32.43900000    0.1188   27.7540
