27
chgs=0 nmr=1 
     C     27.81000000     28.74800000      8.99900000   -0.1026  178.8570
     C     27.96700000     28.08700000     10.41700000   -0.1043  178.3334
     C     30.28800000     24.24500000      6.19300000   -0.0027  163.3062
     C     29.90300000     24.59000000      7.66500000   -0.2023  162.4812
     C     30.86200000     25.49600000      8.38900000    0.0081  165.8560
     C     28.47600000     25.13500000      7.70500000   -0.0113  160.9906
     C     27.71800000     23.34100000     10.57800000   -0.1793  191.6315
     H     28.22100000     28.06200000      8.24300000    0.0300   30.1273
     H     28.37700000     29.69100000      8.98500000    0.0298   30.3964
     H     29.03100000     27.89400000     10.61600000    0.0362   30.4165
     H     27.56800000     28.76600000     11.18400000    0.0310   30.3311
     H     27.41100000     27.13800000     10.44300000    0.0400   30.3166
     H     31.28700000     23.78400000      6.19600000    0.0189   30.2135
     H     29.89100000     23.63600000      8.21200000    0.0098   29.6840
     H     30.49800000     25.67400000      9.41200000    0.0251   30.1496
     H     31.85400000     25.02200000      8.43000000    0.0197   30.1384
     H     30.93500000     26.45400000      7.85400000    0.0176   30.5867
     H     28.20500000     25.37800000      8.74300000    0.0261   30.0145
     H     28.41300000     26.04300000      7.08700000    0.0288   30.4485
     H     27.78300000     24.37600000      7.31300000    0.0153   30.2109
     H     28.68700000     23.85800000     10.64800000    0.0519   30.9177
     H     27.75200000     22.60800000      9.75900000    0.0471   30.9099
     H     26.92400000     24.07600000     10.38000000    0.0511   30.8424
     H     26.76150000     28.96400000      8.74580000    0.0327   30.4920
     H     30.30460000     25.16000000      5.58270000    0.0210   30.6805
     H     29.56540000     23.51590000      5.79770000    0.0229   30.1999
     H     27.50910000     22.82230000     11.52530000    0.0396   30.9951
