21
chgs=0 nmr=1 
     C     31.72000000     36.28900000      9.17600000    0.1288  153.0593
     C     30.95500000     35.21100000      8.45900000   -0.0984   30.6734
     O     30.02500000     34.61800000      9.04000000   -0.2494  -82.1151
     C     32.99500000     35.88300000      9.93400000   -0.1975  156.8684
     C     33.30600000     34.38100000      9.84000000    0.0010  163.3943
     C     33.10900000     36.38100000     11.43500000   -0.0167  167.6605
     C     34.53500000     34.02800000     10.72000000   -0.0227  172.1862
     N     31.24400000     34.98600000      7.19700000    0.0144  163.6894
     H     32.03600000     37.01200000      8.41000000   -0.0122   29.1077
     H     33.82000000     36.38500000      9.40700000    0.0004   29.6134
     H     32.43400000     33.80800000     10.18800000    0.0400   29.8529
     H     33.52200000     34.12000000      8.79300000   -0.0044   29.8810
     H     34.05800000     36.03000000     11.86700000    0.0302   29.2385
     H     33.08000000     37.48000000     11.46000000    0.0204   30.4607
     H     32.26900000     35.97900000     12.02000000    0.0380   30.7539
     H     34.74500000     32.95100000     10.64200000    0.0204   30.2851
     H     35.41000000     34.59800000     10.37300000    0.0209   30.8606
     H     34.32100000     34.28500000     11.76800000    0.0386   29.6767
     H     31.93100000     35.53000000      6.71500000    0.1079   27.0464
     H     31.03820000     36.82410000      9.85340000    0.0236   29.3925
     H     30.74910000     34.24800000      6.73830000    0.1169   27.5585
