14
chgs=0 nmr=1 
     C     31.94500000     29.44900000     10.43600000   -0.0158  157.3371
     C     31.56200000     29.68600000      8.04500000    0.0050  168.9251
     C     32.63100000     29.44400000      9.06000000   -0.1816  165.8340
     C     33.81400000     30.39000000      9.03000000    0.0187  165.8759
     H     32.69500000     29.27400000     11.22100000    0.0170   30.2902
     H     31.46200000     30.42300000     10.60100000    0.0241   30.7779
     H     31.18600000     28.65300000     10.47000000    0.0230   29.9956
     H     30.84400000     30.34400000      8.55700000    0.0087   30.7564
     H     31.10600000     28.69700000      7.88900000    0.0174   29.9247
     H     33.02000000     28.42800000      8.89700000    0.0121   29.5895
     H     34.52800000     30.11100000      9.81900000    0.0186   30.3125
     H     34.30900000     30.32700000      8.05000000    0.0213   30.1680
     H     33.46500000     31.41900000      9.19900000    0.0142   30.5771
     H     31.64470000     30.10980000      7.03330000    0.0172   30.2971
