29
chgs=0 nmr=1 
     C     29.82100000     35.95700000     24.76500000    0.0071  167.3903
     C     28.04900000     35.45400000     23.07100000    0.0073  168.6517
     C     29.18300000     39.72200000     21.58100000   -0.0971  171.2244
     C     29.30800000     39.75000000     23.09500000   -0.0601  168.0415
     C     27.70000000     39.72100000     21.22800000   -0.0505  168.8777
     C     30.05200000     35.04200000     20.00400000    0.1180   37.0826
     O     30.10500000     36.30500000     19.78800000   -0.3175  -94.0675
     N     30.12400000     34.53300000     21.19100000   -0.1012  136.4972
     C     30.47900000     35.36900000     22.37400000    0.1477  143.3504
     C     29.47200000     35.18100000     23.49800000   -0.2109  160.5702
     H     29.05300000     35.77400000     25.53100000    0.0272   30.2535
     H     30.80000000     35.62400000     25.14100000    0.0214   30.2330
     H     29.86200000     37.03200000     24.53700000    0.0303   30.2624
     H     27.37300000     35.30100000     23.92600000    0.0249   30.4430
     H     27.96500000     36.49300000     22.71900000    0.0434   30.3593
     H     27.77200000     34.76700000     22.25700000    0.0145   29.8570
     H     29.62800000     38.78600000     21.21200000    0.0469   29.1994
     H     28.76600000     38.89400000     23.52400000    0.0266   30.3550
     H     30.37000000     39.69000000     23.37600000    0.0224   29.9718
     H     28.87900000     40.68700000     23.48100000    0.0178   30.3495
     H     27.20800000     38.86400000     21.71100000    0.0201   30.6013
     H     27.23900000     40.65500000     21.58100000    0.0161   30.5229
     H     27.58300000     39.64300000     20.13700000    0.0294   29.9375
     H     29.93800000     33.55900000     21.31800000    0.1150   27.5115
     H     30.50500000     36.43000000     22.08400000    0.0596   26.5709
     H     29.51300000     34.11600000     23.77100000    0.0010   29.8745
     H     29.71460000     40.56560000     21.11660000    0.0184   30.1430
     H     29.86790000     34.38390000     19.14200000   -0.0033   22.9790
     H     31.49760000     35.04020000     22.62760000    0.0256   28.5391
