29
chgs=0 nmr=1 
     C     28.04900000     35.45400000     23.07100000   -0.0090  177.2026
     N     28.52500000     34.44700000     18.18900000   -0.0814  125.0949
     C     29.80100000     34.14500000     18.82900000    0.0323  144.4049
     C     30.05200000     35.04200000     20.00400000    0.0442   24.8186
     O     30.10500000     36.30500000     19.78800000   -0.3181  -40.8968
     C     30.92500000     34.30400000     17.75300000   -0.0024  166.6240
     N     32.76300000     35.83100000     23.09000000    0.0219  167.9338
     C     27.47500000     33.65100000     18.30400000    0.1302   41.9900
     O     27.50700000     32.58700000     18.95800000   -0.2931  -71.1479
     N     30.12400000     34.53300000     21.19100000   -0.0479  127.8471
     C     30.47900000     35.36900000     22.37400000    0.0020  131.3946
     C     31.90100000     34.91000000     22.72800000    0.0123   25.9069
     O     32.19000000     33.69600000     22.63500000   -0.2561  -43.8603
     C     29.47200000     35.18100000     23.49800000   -0.0124  163.7495
     H     27.37300000     35.30100000     23.92600000    0.0333   30.2651
     H     27.96500000     36.49300000     22.71900000    0.0309   30.5061
     H     27.77200000     34.76700000     22.25700000    0.0358   30.0775
     H     28.44200000     35.28300000     17.64600000    0.1186   26.9131
     H     29.80100000     33.10000000     19.17200000    0.0210   26.5738
     H     30.79800000     33.52100000     16.99100000    0.0385   30.2067
     H     30.82500000     35.29300000     17.28200000    0.0352   29.8426
     H     32.48200000     36.79100000     23.10200000    0.1163   27.2259
     H     29.93800000     33.55900000     21.31800000    0.1289   26.0426
     H     30.50500000     36.43000000     22.08400000    0.0234   26.5202
     H     29.51300000     34.11600000     23.77100000    0.0200   29.7996
     H     31.93390000     34.21800000     18.18280000    0.0382   30.2497
     H     33.69650000     35.58850000     23.35410000    0.1232   27.4375
     H     26.54180000     33.99370000     17.83310000   -0.0056   23.4701
     H     29.72350000     35.74030000     24.41120000    0.0199   29.8824
