19
chgs=0 nmr=1 
     N     40.29400000     34.41200000     29.04500000   -0.0844  123.3923
     C     40.87300000     33.80200000     30.25300000   -0.0128  134.9733
     C     41.76500000     34.82900000     30.94400000    0.0154   29.3757
     O     42.94500000     34.99400000     30.58300000   -0.2355  -40.1547
     C     41.65100000     32.52900000     29.92300000   -0.0169  164.5817
     C     41.60800000     31.44400000     30.98900000   -0.0315  175.0933
     C     39.07600000     34.93100000     29.03100000    0.1301   44.1736
     O     38.29700000     34.94600000     29.99600000   -0.2825  -51.1814
     N     41.16500000     35.53100000     31.89800000    0.0057  161.2645
     H     40.83900000     34.43500000     28.20700000    0.1234   27.0645
     H     40.05800000     33.53600000     30.94300000    0.0171   27.2205
     H     41.23700000     32.10900000     28.99400000    0.0061   30.3143
     H     42.70300000     32.80600000     29.76300000    0.0408   28.5084
     H     42.35500000     31.68200000     31.76000000    0.0348   30.1927
     H     40.60500000     31.43800000     31.44000000    0.0245   30.5898
     H     40.19900000     35.35100000     32.08500000    0.1210   26.6567
     H     41.82030000     30.43870000     30.59620000    0.0346   30.1371
     H     38.78120000     35.34360000     28.05480000   -0.0082   23.7084
     H     41.63180000     36.23060000     32.43900000    0.1183   27.4816
