23
chgs=0 nmr=1 
     C     28.60500000     33.96500000     12.50300000    0.0435  136.1425
     C     28.63800000     35.46100000     12.90000000   -0.0900   32.5630
     C     30.92500000     34.30400000     17.75300000   -0.1836  193.2727
     C     29.96300000     33.31700000     12.81400000   -0.1639  158.5446
     C     30.21100000     33.39400000     14.30400000   -0.0194  163.3964
     C     29.95700000     31.83800000     12.35200000    0.0229  163.1124
     O     29.52200000     36.10300000     12.32000000   -0.2443  -28.7619
     N     27.75100000     35.86700000     13.74000000    0.0514  172.2270
     H     27.82500000     33.46000000     13.09200000   -0.0322   30.5200
     H     30.79800000     33.52100000     16.99100000    0.0516   31.0289
     H     30.82500000     35.29300000     17.28200000    0.0457   31.1932
     H     30.75600000     33.85900000     12.27900000    0.0339   29.1748
     H     31.18200000     32.93300000     14.53900000    0.0302   30.2330
     H     30.22000000     34.44800000     14.62000000    0.0407   29.9137
     H     29.41200000     32.85800000     14.83700000    0.0090   31.0065
     H     30.93100000     31.37900000     12.57700000    0.0208   30.2195
     H     29.16300000     31.29200000     12.88200000    0.0104   30.7958
     H     29.77200000     31.79300000     11.26900000    0.0201   30.1829
     H     27.09800000     35.21600000     14.12700000    0.1176   27.0596
     H     28.34310000     33.94830000     11.43480000    0.0376   28.9797
     H     30.13450000     34.19220000     18.50970000    0.0392   31.1331
     H     31.93390000     34.21800000     18.18280000    0.0446   31.0360
     H     27.71110000     36.82960000     14.00790000    0.1144   27.7496
