12
chgs=0 nmr=1 
     C     32.35200000     16.70000000     14.63000000   -0.0183  162.2636
     C     31.39800000     19.06400000     14.28600000   -0.0158  163.3706
     C     32.49200000     18.19300000     14.99500000    0.0138  117.1324
     O     33.77800000     18.73900000     14.51600000   -0.2941  263.5036
     H     33.13400000     16.12100000     15.14400000    0.0182   30.2603
     H     31.36200000     16.33700000     14.94300000    0.0227   30.1565
     H     32.46000000     16.57700000     13.54200000    0.0314   30.1655
     H     30.40500000     18.73500000     14.62700000    0.0217   30.4128
     H     32.40300000     18.31600000     16.08500000    0.0100   27.2102
     H     34.49400000     18.25400000     14.90900000    0.1456   31.9318
     H     31.48330000     18.96650000     13.19370000    0.0308   30.1596
     H     31.53670000     20.12320000     14.54850000    0.0341   29.8309
