20
chgs=0 nmr=1 
     C     27.58800000     37.63500000      9.71500000   -0.0155  165.9861
     C     30.45900000     40.66600000     12.13000000    0.1304   45.3782
     O     30.25300000     39.99100000     13.13300000   -0.2682  -56.4783
     N     30.79500000     37.01500000     10.09500000   -0.0023  163.1672
     N     30.16300000     40.33800000     10.88600000   -0.0804  136.6919
     C     29.54200000     39.02000000     10.65300000    0.0442  128.2697
     C     30.49400000     38.26100000      9.72900000   -0.0204   28.3608
     O     30.84900000     38.85000000      8.70600000   -0.2341  -34.5524
     C     28.11300000     39.04900000     10.01500000    0.0920  114.4402
     O     27.28000000     39.72200000     10.99600000   -0.2617  271.7321
     H     26.58500000     37.70300000      9.26900000    0.0272   30.2793
     H     28.26800000     37.13300000      9.01200000    0.0382   29.9678
     H     27.53600000     37.05800000     10.65000000    0.0268   30.3871
     H     30.42700000     36.59700000     10.92600000    0.1272   26.6646
     H     30.35300000     40.96100000     10.12800000    0.1224   26.3727
     H     29.47700000     38.47800000     11.60800000    0.0160   26.5621
     H     28.15100000     39.62800000      9.08100000    0.0062   27.4324
     H     26.38900000     39.77600000     10.67200000    0.1495   32.0633
     H     30.98010000     41.62410000     12.27310000   -0.0194   23.4120
     H     31.41480000     36.52850000      9.47920000    0.1220   27.6186
