24
chgs=0 nmr=1 
     C     27.96700000     28.08700000     10.41700000   -0.1792  193.4072
     C     31.56200000     29.68600000      8.04500000    0.0041  168.9090
     C     32.63100000     29.44400000      9.06000000   -0.1884  165.6930
     C     33.81400000     30.39000000      9.03000000    0.0227  165.8419
     C     31.94500000     29.44900000     10.43600000   -0.0335  155.4483
     C     31.68400000     26.74900000     13.34200000   -0.1778  193.7667
     H     29.03100000     27.89400000     10.61600000    0.0487   30.9065
     H     27.56800000     28.76600000     11.18400000    0.0438   31.0195
     H     27.41100000     27.13800000     10.44300000    0.0409   31.0244
     H     30.84400000     30.34400000      8.55700000    0.0100   30.7645
     H     31.10600000     28.69700000      7.88900000    0.0186   29.9115
     H     33.02000000     28.42800000      8.89700000    0.0114   29.5584
     H     34.52800000     30.11100000      9.81900000    0.0187   30.3198
     H     34.30900000     30.32700000      8.05000000    0.0216   30.1711
     H     33.46500000     31.41900000      9.19900000    0.0138   30.5882
     H     32.69500000     29.27400000     11.22100000    0.0234   30.1888
     H     31.46200000     30.42300000     10.60100000    0.0235   30.6815
     H     31.18600000     28.65300000     10.47000000    0.0449   29.7434
     H     30.62600000     26.86500000     13.61900000    0.0447   31.0584
     H     32.31300000     27.29600000     14.06000000    0.0432   31.0727
     H     31.84500000     27.15300000     12.33100000    0.0406   30.8188
     H     27.85720000     28.54940000      9.42500000    0.0455   31.0255
     H     31.64470000     30.10980000      7.03330000    0.0173   30.3048
     H     31.95280000     25.68250000     13.35770000    0.0414   31.0567
