18
chgs=0 nmr=1 
     C     31.82700000     27.26200000      2.89400000   -0.0501  161.9195
     C     31.36300000     28.41000000      1.96200000   -0.0167  155.1337
     C     31.67100000     28.29100000      0.49800000    0.0144   32.0575
     O     30.86900000     28.62100000     -0.36600000   -0.2095  -66.0642
     O     32.83500000     27.86100000      0.27800000   -0.0442  165.6677
     C     31.02200000     29.28800000      5.66500000    0.1123   46.4032
     O     29.80900000     29.39500000      5.54500000   -0.2605  -57.5726
     N     31.83400000     28.41200000      5.12500000   -0.1332  141.2839
     C     31.22000000     27.34100000      4.27500000    0.1058  149.9359
     H     32.92200000     27.30900000      2.98900000    0.0180   29.9020
     H     31.53900000     26.30300000      2.43900000    0.0311   29.8566
     H     30.27100000     28.49200000      2.06200000    0.0465   29.2902
     H     31.83500000     29.33600000      2.32200000    0.0504   28.8204
     H     32.99100000     27.83300000     -0.65900000    0.1593   26.5186
     H     32.82200000     28.45600000      5.27400000    0.1197   27.5544
     H     30.13900000     27.52500000      4.18300000    0.0514   26.6165
     H     31.49180000     29.99600000      6.36360000   -0.0274   23.5033
     H     31.38000000     26.42350000      4.86030000    0.0325   28.5511
