24
chgs=0 nmr=1 
     C     22.65000000     24.51600000     12.17200000   -0.0546  161.7320
     C     22.66200000     24.81900000     13.69900000   -0.0558  161.9882
     C     23.37600000     25.64500000     11.40900000   -0.0661  175.7483
     C     24.12300000     24.98100000     14.19500000   -0.0720  171.6687
     C     24.94200000     28.80700000     13.95200000   -0.1792  192.7283
     C     27.38000000     23.72100000     12.95500000   -0.1782  192.0429
     H     23.21600000     23.58600000     12.01300000    0.0133   30.2480
     H     22.10700000     25.74900000     13.89000000    0.0170   30.2795
     H     22.18400000     23.98900000     14.23900000    0.0165   29.8014
     H     24.39600000     25.75900000     11.80600000    0.0408   29.4545
     H     23.42500000     25.39200000     10.34000000    0.0244   30.2547
     H     22.82500000     26.58800000     11.53800000    0.0273   30.7965
     H     24.12300000     25.19500000     15.27400000    0.0229   30.2229
     H     24.68000000     24.05100000     14.00600000    0.0289   30.6200
     H     24.60300000     25.81200000     13.65700000    0.0352   29.3794
     H     24.94200000     27.99400000     13.21100000    0.0504   30.8586
     H     24.73300000     28.39300000     14.95000000    0.0466   30.9953
     H     24.16700000     29.54200000     13.69000000    0.0425   30.9706
     H     28.35200000     24.23400000     12.99200000    0.0410   30.9733
     H     26.59400000     24.44400000     12.69300000    0.0469   30.8288
     H     27.16100000     23.28100000     13.93900000    0.0488   31.0659
     H     21.61880000     24.33800000     11.83300000    0.0184   29.7648
     H     25.92610000     29.29830000     13.95780000    0.0428   30.9706
     H     27.41310000     22.92500000     12.19650000    0.0422   30.9570
