33
chgs=0 nmr=1 
     N     24.24000000     19.23300000     12.24600000   -0.1326  132.6873
     C     22.92400000     18.58300000     12.02500000    0.0587  130.4162
     C     22.22900000     18.24400000     13.32500000    0.0302   28.8502
     O     20.96300000     18.25300000     13.39500000   -0.2604  -78.2590
     C     23.05900000     17.32600000     11.15400000    0.1552  126.4024
     O     23.91400000     16.39500000     11.75500000   -0.2775  318.3388
     N     22.99700000     17.97800000     14.36600000   -0.0841  133.4262
     C     22.41800000     17.63800000     15.69300000    0.0174  133.0273
     C     21.46000000     18.73700000     16.16300000   -0.0305   33.6543
     O     20.49700000     18.50600000     16.90000000   -0.2345  -33.7803
     C     23.46100000     17.33100000     16.74100000    0.0282  153.2463
     C     24.18400000     16.01600000     16.61900000    0.0600   27.6106
     O     25.30300000     15.89400000     17.15200000   -0.2396  -84.4755
     O     23.57200000     15.10700000     15.97500000   -0.0436  160.1954
     N     21.84600000     19.95400000     15.90500000    0.0306  168.1035
     O     25.92500000     16.61100000     13.91300000   -0.2563  322.6955
     C     24.24100000     20.43600000     12.85700000    0.1356   44.9859
     O     23.26400000     20.95100000     13.32900000   -0.2301  -70.6637
     H     25.09100000     18.79700000     11.95400000    0.1062   26.2156
     H     22.28300000     19.29200000     11.48000000    0.0480   27.3798
     H     22.06600000     16.87100000     11.02100000    0.0356   26.9887
     H     23.46700000     17.60900000     10.17200000    0.0140   27.3928
     H     23.98400000     15.62600000     11.20200000    0.1619   32.3303
     H     23.99100000     18.00600000     14.25900000    0.1067   25.3052
     H     21.81600000     16.72700000     15.56300000    0.0352   27.2984
     H     24.21600000     18.13000000     16.70200000    0.0303   29.0483
     H     22.96200000     17.34600000     17.72100000    0.0743   28.5530
     H     24.10000000     14.31700000     15.96200000    0.1595   26.2534
     H     22.72300000     20.07900000     15.44100000    0.0970   27.1906
     H     25.65000000     15.90600000     13.33900000    0.1415   31.3630
     H     21.32120000     20.77160000     16.14170000    0.1156   27.7566
     H     26.82680000     16.90240000     13.66360000    0.1607   30.6176
     H     25.21610000     20.92100000     13.01190000   -0.0133   23.2496
