22
chgs=0 nmr=1 
     C     29.60400000     43.50700000     13.39300000    0.1239   42.9537
     O     29.21900000     43.98100000     12.30100000   -0.2971  -67.4492
     N     30.56300000     42.62300000     13.49500000   -0.0506  129.7404
     C     31.19100000     42.01200000     12.33100000    0.0100  135.5150
     C     30.45900000     40.66600000     12.13000000   -0.0256   28.5116
     O     30.25300000     39.99100000     13.13300000   -0.2268  -21.1105
     C     32.67200000     41.71700000     12.50500000    0.0071  150.9327
     C     33.28000000     41.08600000     11.22700000   -0.0860  166.3694
     C     34.76200000     40.79900000     11.47000000   -0.0170  174.2540
     N     30.16300000     40.33800000     10.88600000    0.0209  166.0467
     H     30.87700000     42.35700000     14.40600000    0.1166   26.7173
     H     31.04300000     42.64100000     11.44100000    0.0104   27.0583
     H     33.20000000     42.65600000     12.72600000    0.0304   30.0593
     H     32.80100000     41.01800000     13.34500000    0.0230   29.7532
     H     32.75600000     40.14700000     10.99400000    0.0293   29.7324
     H     33.17300000     41.78500000     10.38400000    0.0177   30.1725
     H     35.14400000     41.54500000     12.18200000    0.0229   30.6394
     H     34.85000000     39.79400000     11.91000000    0.0330   30.1276
     H     30.35300000     40.96100000     10.12800000    0.1217   27.1072
     H     29.14480000     43.83930000     14.33570000   -0.0105   23.4977
     H     35.38800000     40.83430000     10.56620000    0.0269   30.1839
     H     29.74210000     39.44470000     10.72810000    0.1196   27.5818
