25
chgs=0 nmr=1 
     O     15.44000000     21.81900000     12.37800000   -0.2865 -113.1267
     C     21.11000000     24.11100000     10.17300000    0.1038   38.9366
     O     21.84100000     23.19800000      9.68600000   -0.3046  -91.7601
     C     16.50900000     23.52900000      7.11600000   -0.0234   32.0292
     C     16.57600000     21.25800000     12.31500000    0.0996   36.7120
     N     20.29100000     24.87500000      9.50700000   -0.1133  136.4027
     C     20.08100000     24.77300000      8.03300000    0.1508  149.5473
     C     18.59900000     24.73600000      7.72700000   -0.1375  153.6127
     C     17.81900000     23.43400000      7.90000000    0.0487  157.0435
     N     16.92400000     20.58600000     11.21600000   -0.0494  158.8951
     O     15.44600000     22.98000000      7.43300000   -0.2216  -76.4217
     N     16.53900000     24.29300000      6.00900000   -0.0354  159.8159
     H     19.77500000     25.56800000     10.01100000    0.1201   27.7787
     H     20.52200000     23.82600000      7.68800000    0.0389   26.9611
     H     18.12100000     25.48200000      8.37800000    0.0326   29.7759
     H     18.48300000     25.03900000      6.67600000    0.0069   29.7206
     H     18.41700000     22.59300000      7.51900000    0.0489   29.6187
     H     17.60000000     23.27500000      8.96600000    0.0367   29.1655
     H     16.29000000     20.52600000     10.44500000    0.1308   26.8358
     H     17.81900000     20.14300000     11.16300000    0.1135   27.3984
     H     15.71200000     24.40900000      5.45900000    0.1217   27.3327
     H     17.38800000     24.74500000      5.73600000    0.0890   25.9051
     H     21.16330000     24.22050000     11.26620000   -0.0044   23.0417
     H     17.30320000     21.27530000     13.14010000   -0.0046   23.3073
     H     20.61360000     25.59310000      7.52920000    0.0386   28.4907
