29
chgs=0 nmr=1 
     C     34.14500000     35.47200000     23.48100000   -0.0336  174.2878
     C     35.11400000     36.56400000     22.90700000   -0.0186  158.6477
     C     35.92600000     35.97900000     21.73700000   -0.2218  158.4453
     C     35.00300000     35.08400000     20.92000000    0.0272  165.8442
     C     38.52800000     32.85400000     23.18200000   -0.1030  174.3918
     C     36.53300000     37.08700000     20.91700000    0.0280  164.8643
     C     40.76000000     34.03600000     23.39400000   -0.0574   33.2499
     O     41.97500000     34.00800000     23.62400000   -0.2440  -55.9913
     N     40.14000000     35.00700000     22.77500000    0.0086  171.9281
     C     39.91900000     32.85400000     23.84000000   -0.0408  159.9075
     H     34.41100000     34.50500000     23.02800000    0.0267   29.0384
     H     34.52600000     37.42200000     22.55000000    0.0140   30.6161
     H     35.80200000     36.89500000     23.69900000    0.0139   29.5834
     H     36.73600000     35.36100000     22.15200000    0.0065   30.1317
     H     35.56200000     34.65300000     20.07600000    0.0172   30.5546
     H     34.62000000     34.27400000     21.55700000    0.0182   28.3848
     H     34.16100000     35.67900000     20.53700000    0.0170   31.0469
     H     38.63400000     32.78100000     22.09000000    0.0421   30.3550
     H     37.99600000     33.78200000     23.43800000    0.0406   30.5932
     H     37.11000000     36.65500000     20.08600000    0.0182   30.0949
     H     35.73300000     37.72600000     20.51500000    0.0205   30.7076
     H     37.20000000     37.68900000     21.55100000    0.0170   30.1495
     H     40.65400000     35.80100000     22.45000000    0.1143   27.7318
     H     39.15200000     34.95500000     22.62700000    0.1053   26.3720
     H     39.79500000     32.89900000     24.93200000    0.0524   29.2992
     H     40.44000000     31.92400000     23.56800000    0.0482   29.2803
     H     33.11810000     35.73870000     23.19050000    0.0281   30.2273
     H     34.21370000     35.38510000     24.57540000    0.0217   30.3181
     H     37.96540000     31.98740000     23.55940000    0.0336   29.9824
