31
chgs=0 nmr=1 
     C     24.62000000     34.77800000      4.85300000    0.0054   68.5402
     C     26.85000000     29.02100000      3.89800000    0.0595  152.9788
     C     26.10000000     29.25300000      5.20200000   -0.0499   27.2633
     O     24.86500000     29.02400000      5.33000000   -0.2615  -71.6722
     C     26.73300000     30.14800000      2.90500000   -0.0581  164.4007
     C     26.88200000     31.54600000      3.40900000   -0.0049  152.4108
     C     26.78600000     32.56200000      2.27000000   -0.0387   32.3367
     O     27.78300000     33.16000000      1.87000000   -0.2209  -55.4921
     N     25.56200000     32.73300000      1.80600000   -0.0064  170.7780
     N     26.84900000     29.65600000      6.21700000   -0.0064  160.5314
     C     25.28800000     34.60900000      7.49900000    0.0014   65.6990
     C     24.14700000     33.96600000      7.03800000    0.0107   67.8958
     C     26.13600000     35.34600000      6.64000000    0.0021   62.2366
     C     23.81200000     34.03100000      5.67700000    0.0220   69.2505
     C     25.81000000     35.39200000      5.26700000    0.0212   64.3208
     H     24.31900000     34.89900000      3.82300000   -0.0254   24.4536
     H     27.91400000     28.87800000      4.13600000    0.0003   29.8337
     H     27.50800000     29.99200000      2.14000000    0.0300   29.8084
     H     25.73900000     30.07200000      2.44000000    0.0138   29.7946
     H     26.08500000     31.75000000      4.13900000    0.0449   29.9881
     H     27.86200000     31.64800000      3.89800000    0.0044   30.2786
     H     25.39300000     33.39100000      1.07200000    0.1153   27.7443
     H     24.80400000     32.20400000      2.18800000    0.1154   27.3094
     H     27.84300000     29.68800000      6.11500000    0.1104   27.5064
     H     23.51900000     33.41800000      7.72500000   -0.0103   24.2583
     H     27.00600000     35.85800000      7.02300000   -0.0091   24.0474
     H     22.94800000     33.51100000      5.29000000   -0.0127   24.2125
     H     26.45800000     35.88500000      4.55700000   -0.0014   24.0430
     H     26.47150000     28.10150000      3.42760000    0.0368   29.2099
     H     26.43290000     29.92850000      7.08450000    0.1178   27.9886
     H     25.58500000     34.52800000      8.55500000   -0.0054   24.0097
