21
chgs=0 nmr=1 
     C     21.15600000     30.72600000      2.31100000    0.1331   43.6932
     O     19.94200000     30.79300000      2.17000000   -0.2401  -70.9605
     O     21.95400000     30.15200000      1.53500000   -0.0510  156.1492
     C     21.63100000     26.64200000      3.73100000   -0.0461  171.1184
     C     20.21000000     26.42300000      3.17500000   -0.0608  165.0598
     C     20.26800000     26.58900000      1.65600000   -0.0620  152.9047
     C     19.20200000     25.85700000      0.89100000    0.0718  142.5548
     N     17.88400000     26.54400000      1.07500000   -0.2248  232.5979
     H     21.47300000     29.77100000      0.81000000    0.1659   25.9195
     H     22.06200000     27.53200000      3.24900000    0.0210   30.6827
     H     22.24200000     25.76100000      3.48700000    0.0289   30.4194
     H     19.86200000     25.41000000      3.42700000    0.0122   30.6088
     H     19.52200000     27.16500000      3.60600000    0.0308   29.7294
     H     20.17600000     27.66100000      1.42700000    0.0082   29.6887
     H     21.24600000     26.22300000      1.31100000    0.0087   30.3211
     H     19.46200000     25.84600000     -0.17800000    0.0082   28.7593
     H     19.13000000     24.82400000      1.26200000   -0.0062   28.3876
     H     17.17800000     26.05400000      0.56400000    0.0861   31.6225
     H     17.64600000     26.55400000      2.04600000    0.0856   31.8539
     H     21.67540000     31.17990000      3.16790000    0.0081   24.0969
     H     21.64910000     26.79010000      4.82080000    0.0222   30.3211
