25
chgs=0 nmr=1 
     N     35.13900000     21.62400000     14.66200000   -0.0929  134.7296
     C     35.59000000     21.94500000     13.30200000    0.0057  135.0297
     C     35.23800000     23.38200000     12.92000000    0.0075   31.2179
     O     36.06600000     24.10900000     12.33300000   -0.2039  -94.8302
     C     35.06400000     20.95700000     12.25500000    0.0495  150.7737
     C     35.54100000     21.41800000     10.87100000   -0.0294   30.7104
     O     36.77200000     21.62300000     10.67600000   -0.2320  -91.1985
     N     34.62800000     21.59500000      9.92000000   -0.0003  160.8462
     N     34.00700000     23.74500000     13.25000000    0.0014  173.8847
     C     35.61500000     22.19000000     15.75900000    0.1287   40.1991
     O     36.53200000     23.04600000     15.72400000   -0.2602 -114.8607
     C     39.28500000     24.33600000     13.56600000   -0.1765  193.0535
     H     34.42500000     20.93200000     14.76600000    0.1037   27.4170
     H     36.68700000     21.87000000     13.28900000    0.0663   26.4911
     H     35.45300000     19.95000000     12.46600000    0.0603   28.7736
     H     33.96400000     20.93800000     12.28200000   -0.0234   29.8787
     H     34.90700000     21.90100000      9.01000000    0.1297   27.3638
     H     33.66300000     21.42200000     10.11500000    0.1072   27.2542
     H     33.39700000     23.08600000     13.69000000    0.0928   27.1473
     H     40.25500000     24.38700000     13.05000000    0.0162   31.3537
     H     39.39800000     23.77200000     14.50400000    0.0322   30.9945
     H     38.55200000     23.83000000     12.92000000    0.0706   29.8206
     H     33.68200000     24.67210000     13.06350000    0.1221   27.7515
     H     35.18920000     21.84880000     16.71410000   -0.0067   23.2094
     H     38.93420000     25.35410000     13.79030000    0.0314   31.0737
