32
chgs=0 nmr=1 
     N     41.18900000     32.08500000     19.03100000   -0.2994  117.9340
     C     41.46100000     30.75100000     19.59400000    0.1860  142.6904
     C     42.19500000     31.14200000     20.91300000   -0.0876  159.4312
     C     42.90400000     32.41400000     20.55300000   -0.0364  162.8112
     C     41.82200000     33.18800000     19.81300000    0.1235  136.1269
     C     41.94900000     34.07600000     15.84200000    0.1587   36.4161
     O     42.82900000     34.00000000     16.73900000   -0.2900  -89.4234
     N     40.64200000     33.91600000     16.11200000   -0.0921  116.7375
     C     40.22600000     33.71600000     17.50900000    0.0447  128.5807
     C     40.44900000     32.27800000     17.94500000    0.1127   30.9150
     O     39.93600000     31.33600000     17.31500000   -0.2648  -46.7137
     C     38.69300000     34.10600000     17.59500000   -0.1854  150.2849
     C     38.47100000     35.54600000     17.04500000    0.0270  168.3485
     C     38.14600000     33.93200000     19.02700000    0.0079  170.0542
     H     42.11200000     30.14800000     18.94400000    0.0399   28.1086
     H     41.47600000     31.30900000     21.72900000    0.0255   29.7332
     H     42.91200000     30.36200000     21.21000000    0.0257   29.3503
     H     43.23600000     32.95400000     21.45200000    0.0210   29.6449
     H     43.76900000     32.21800000     19.90300000    0.0430   29.6276
     H     41.10900000     33.65500000     20.50800000    0.0206   28.3458
     H     42.25100000     33.95800000     19.15500000    0.0657   26.1130
     H     39.96500000     33.93300000     15.37700000    0.1252   26.5441
     H     40.79400000     34.38800000     18.16900000    0.0187   26.8263
     H     38.14400000     33.41300000     16.94100000    0.0239   29.3582
     H     38.76200000     36.27900000     17.81200000    0.0220   30.6482
     H     39.08700000     35.69300000     16.14500000    0.0029   29.8052
     H     37.08200000     34.21100000     19.05000000    0.0292   30.2503
     H     38.25700000     32.88200000     19.33700000    0.0448   29.9776
     H     38.70900000     34.57900000     19.71600000    0.0231   30.7118
     H     40.52370000     30.22540000     19.82890000    0.0320   27.8030
     H     42.24370000     34.21960000     14.79200000    0.0003   23.2361
     H     37.41040000     35.68620000     16.78910000    0.0317   30.2301
