33
chgs=0 nmr=1 
     C     29.82100000     35.95700000     24.76500000    0.0029  168.2621
     C     28.04900000     35.45400000     23.07100000    0.0433  167.7970
     C     30.05200000     35.04200000     20.00400000    0.1222   37.5220
     O     30.10500000     36.30500000     19.78800000   -0.3271  -90.4057
     N     32.76300000     35.83100000     23.09000000    0.0323  163.5541
     C     30.84700000     30.93100000     24.11800000   -0.0556  169.9875
     C     29.41200000     30.79600000     24.59800000   -0.0771  171.0217
     C     29.27100000     31.31400000     26.01600000   -0.0510  170.1511
     N     30.12400000     34.53300000     21.19100000   -0.0625  125.8017
     C     30.47900000     35.36900000     22.37400000    0.0467  128.8109
     C     31.90100000     34.91000000     22.72800000    0.0065   26.5230
     O     32.19000000     33.69600000     22.63500000   -0.2450  -41.1799
     C     29.47200000     35.18100000     23.49800000   -0.1618  159.0006
     H     29.05300000     35.77400000     25.53100000    0.0347   30.1882
     H     30.80000000     35.62400000     25.14100000    0.0306   30.0329
     H     29.86200000     37.03200000     24.53700000    0.0169   30.7006
     H     27.37300000     35.30100000     23.92600000    0.0271   30.3929
     H     27.96500000     36.49300000     22.71900000    0.0292   30.4687
     H     27.77200000     34.76700000     22.25700000    0.0183   29.8111
     H     32.48200000     36.79100000     23.10200000    0.1175   27.1220
     H     31.49100000     30.45600000     24.87200000    0.0106   30.7070
     H     31.07600000     32.00600000     24.06500000    0.0333   29.7948
     H     28.75300000     31.37500000     23.93500000    0.0105   30.1678
     H     29.12000000     29.73600000     24.57000000    0.0165   29.9848
     H     29.85100000     30.66900000     26.69200000    0.0249   30.4940
     H     29.66200000     32.34100000     26.06300000    0.0172   30.7257
     H     29.93800000     33.55900000     21.31800000    0.1243   26.4225
     H     30.50500000     36.43000000     22.08400000    0.0197   26.5838
     H     29.51300000     34.11600000     23.77100000    0.0245   29.6962
     H     29.86790000     34.38390000     19.14200000    0.0017   23.0344
     H     33.69650000     35.58850000     23.35410000    0.1238   27.2319
     H     31.10430000     30.49220000     23.14270000    0.0223   30.1643
     H     28.21910000     31.31630000     26.33770000    0.0224   30.1653
