33
chgs=0 nmr=1 
     N     41.18900000     32.08500000     19.03100000   -0.2559  110.3229
     C     41.46100000     30.75100000     19.59400000    0.0366  129.1995
     C     40.16800000     30.02600000     19.91800000    0.1243   30.2154
     O     39.26400000     30.66200000     20.52100000   -0.2878  -42.2891
     C     42.19500000     31.14200000     20.91300000    0.0147  153.1269
     C     42.90400000     32.41400000     20.55300000   -0.0173  162.5538
     C     41.82200000     33.18800000     19.81300000    0.1392  132.5348
     N     40.05900000     28.75800000     19.60700000   -0.2745  125.4893
     C     38.81700000     28.02000000     19.88900000    0.1815  142.8886
     C     39.09000000     26.62900000     19.32500000   -0.0793  162.2559
     C     40.08200000     26.90400000     18.19800000   -0.0540  160.4254
     C     41.03500000     27.90900000     18.87900000    0.1398  138.0016
     C     40.22600000     33.71600000     17.50900000   -0.0074  169.5471
     C     40.44900000     32.27800000     17.94500000    0.0453   33.2198
     O     39.93600000     31.33600000     17.31500000   -0.2740  -63.1267
     H     42.11200000     30.14800000     18.94400000    0.0045   27.2124
     H     41.47600000     31.30900000     21.72900000    0.0314   29.2912
     H     42.91200000     30.36200000     21.21000000    0.0173   29.3991
     H     43.23600000     32.95400000     21.45200000    0.0233   29.5854
     H     43.76900000     32.21800000     19.90300000    0.0225   29.7796
     H     41.10900000     33.65500000     20.50800000    0.0386   27.7956
     H     42.25100000     33.95800000     19.15500000    0.0421   27.4502
     H     38.00200000     28.46900000     19.30300000    0.0347   27.9816
     H     39.53200000     25.97200000     20.08900000    0.0247   29.7366
     H     38.16800000     26.17200000     18.93700000    0.0297   29.4044
     H     40.61100000     25.98900000     17.89400000    0.0237   29.5905
     H     39.58500000     27.34800000     17.32300000    0.0511   29.4641
     H     41.73000000     27.40700000     19.56800000    0.0256   28.4175
     H     41.60700000     28.49000000     18.14100000    0.0528   27.2796
     H     40.79400000     34.38800000     18.16900000    0.0086   28.8350
     H     38.52760000     28.04050000     20.95010000    0.0349   27.9569
     H     40.53700000     33.86550000     16.46450000    0.0460   29.7616
     H     39.16150000     33.98680000     17.56870000    0.0574   29.5493
