14
chgs=0 nmr=1 
     C     25.49100000     27.77100000      8.28700000   -0.1792  191.9055
     C     25.35300000     24.86000000      5.13400000   -0.1546  165.0909
     S     23.93000000     23.95900000      5.90400000   -0.1271  604.0123
     C     24.44700000     23.98400000      7.62000000   -0.1433  169.8661
     H     25.56300000     27.04000000      9.10600000    0.0511   31.0132
     H     24.43900000     28.06000000      8.14500000    0.0500   30.7802
     H     25.87600000     27.32100000      7.36000000    0.0453   30.8987
     H     26.29500000     24.33800000      5.35600000    0.0653   29.5337
     H     25.40300000     25.88800000      5.52200000    0.0754   29.2135
     H     23.69300000     23.47500000      8.23800000    0.0720   29.6790
     H     25.41300000     23.46700000      7.71900000    0.0626   29.4360
     H     24.55300000     25.02600000      7.95600000    0.0676   29.2185
     H     26.08540000     28.66230000      8.53650000    0.0423   30.8965
     H     25.17680000     24.87460000      4.04830000    0.0726   29.5809
