22
chgs=0 nmr=1 
     C     24.12300000     24.98100000     14.19500000   -0.1806  191.7073
     C     25.59400000     21.10900000     13.07200000   -0.0249  175.5858
     C     26.08400000     21.88800000     11.83300000   -0.0355  155.3742
     C     27.42600000     22.61600000     11.90200000   -0.1612  158.9419
     C     27.71800000     23.34100000     10.57800000    0.0144  159.7656
     C     27.38000000     23.72100000     12.95500000    0.0022  163.9718
     H     24.12300000     25.19500000     15.27400000    0.0423   30.9207
     H     24.68000000     24.05100000     14.00600000    0.0487   30.6924
     H     24.60300000     25.81200000     13.65700000    0.0482   31.0479
     H     25.51600000     21.80500000     13.92000000    0.0293   29.9787
     H     26.14900000     21.16800000     11.00400000    0.0097   29.7511
     H     25.31800000     22.64300000     11.60300000    0.0080   30.4941
     H     28.23400000     21.90500000     12.13000000    0.0086   30.1730
     H     28.68700000     23.85800000     10.64800000    0.0197   30.1209
     H     27.75200000     22.60800000      9.75900000    0.0150   30.2199
     H     26.92400000     24.07600000     10.38000000    0.0157   30.7092
     H     28.35200000     24.23400000     12.99200000    0.0164   30.2315
     H     26.59400000     24.44400000     12.69300000    0.0183   30.8127
     H     27.16100000     23.28100000     13.93900000    0.0179   29.7443
     H     23.08710000     24.86610000     13.84330000    0.0413   30.9675
     H     26.33400000     20.32790000     13.30050000    0.0186   30.5326
     H     24.61890000     20.62400000     12.91710000    0.0280   30.2524
