26
chgs=0 nmr=1 
     N     31.23300000     21.09000000     21.45900000   -0.0699  155.3050
     N     31.69700000     18.31100000     20.40600000    0.0132  172.0813
     N     27.94200000     22.44800000     21.64800000   -0.0936  126.9455
     C     29.01500000     21.65700000     22.28800000    0.0552  139.1628
     C     29.94200000     21.10600000     21.24000000    0.0050   31.5328
     O     29.47000000     20.67700000     20.19000000   -0.2356  -45.1943
     C     28.34800000     20.54000000     23.06600000   -0.0550  163.0346
     C     29.24700000     19.45600000     23.70500000   -0.0264  179.0144
     C     27.99400000     23.78100000     21.64300000    0.1285   46.7389
     O     28.90400000     24.44400000     22.09800000   -0.2572  -60.3973
     C     32.26200000     20.67000000     20.51400000    0.1010  145.1327
     C     32.12800000     19.36400000     19.75000000   -0.0277   33.3982
     O     32.54600000     19.31700000     18.55800000   -0.2535  -84.6173
     H     31.54300000     21.39500000     22.36000000    0.1153   27.2212
     H     31.43900000     18.43200000     21.36400000    0.1005   27.5357
     H     27.17100000     21.98000000     21.21600000    0.1221   26.8716
     H     29.58400000     22.29400000     22.98200000    0.0143   27.1435
     H     27.77300000     21.00700000     23.87900000    0.0385   29.6362
     H     27.66000000     20.02800000     22.37700000    0.0284   29.7810
     H     29.26900000     18.57400000     23.04800000    0.0377   30.3228
     H     30.26600000     19.85500000     23.81800000    0.0013   30.7661
     H     32.31500000     21.45700000     19.74700000    0.0560   27.4061
     H     31.60950000     17.39610000     20.01200000    0.1227   27.3917
     H     28.86580000     19.15900000     24.69320000    0.0426   30.0926
     H     27.14870000     24.31660000     21.18630000   -0.0127   23.4651
     H     33.23390000     20.70250000     21.02820000    0.0493   28.1336
