25
chgs=0 nmr=1 
     C     26.91300000     26.63900000      3.53100000    0.1153   47.0606
     O     27.88600000     26.46300000      4.26300000   -0.2839  -45.5960
     N     26.84900000     29.65600000      6.21700000    0.0059  156.3573
     C     31.02200000     29.28800000      5.66500000    0.0882   44.2830
     O     29.80900000     29.39500000      5.54500000   -0.2319  -35.3083
     N     26.33500000     27.77000000      3.25800000   -0.0680  123.6685
     C     26.85000000     29.02100000      3.89800000    0.0357  136.8910
     C     26.10000000     29.25300000      5.20200000   -0.0143   25.4775
     O     24.86500000     29.02400000      5.33000000   -0.2676  -54.0305
     C     26.73300000     30.14800000      2.90500000   -0.0417  163.3801
     C     26.88200000     31.54600000      3.40900000   -0.0249  178.0945
     N     31.83400000     28.41200000      5.12500000   -0.0202  163.4020
     H     27.84300000     29.68800000      6.11500000    0.1048   25.1164
     H     25.55800000     27.80400000      2.63000000    0.1157   26.9915
     H     27.91400000     28.87800000      4.13600000    0.0235   25.9634
     H     27.50800000     29.99200000      2.14000000    0.0233   29.7115
     H     25.73900000     30.07200000      2.44000000    0.0126   30.0230
     H     26.08500000     31.75000000      4.13900000    0.0434   30.3275
     H     27.86200000     31.64800000      3.89800000    0.0211   30.4268
     H     32.82200000     28.45600000      5.27400000    0.1319   27.0452
     H     26.45330000     25.76780000      3.04140000   -0.0319   23.7330
     H     26.43290000     29.92850000      7.08450000    0.1098   27.4689
     H     31.49180000     29.99600000      6.36360000   -0.0121   23.4901
     H     26.81290000     32.27680000      2.58970000    0.0271   30.3714
     H     31.42440000     27.69750000      4.55790000    0.1384   27.0108
