43
chgs=0 nmr=1 
     C     34.44100000     26.09900000     13.68400000    0.1430   40.5778
     O     34.88300000     27.09000000     13.09300000   -0.2457  -70.8857
     N     34.73400000     25.82200000     14.94900000   -0.1379  141.6755
     C     35.59600000     26.71500000     15.73600000    0.1553  144.5091
     C     36.97500000     26.82600000     15.10700000   -0.0092   30.3201
     O     37.57900000     27.92600000     15.15900000   -0.2489  -73.9045
     N     37.49900000     25.74300000     14.57100000   -0.0935  153.4930
     C     38.79400000     25.76100000     13.88000000    0.1764  145.1074
     C     38.72800000     26.59100000     12.61100000   -0.0286   28.3223
     O     39.70400000     27.34600000     12.27700000   -0.2570 -129.1330
     N     37.63300000     26.54300000     11.86700000   -0.0790  125.9850
     C     37.47100000     27.39100000     10.66800000    0.0544  133.8065
     C     37.44100000     28.88200000     11.05200000    0.0393   27.1151
     O     38.02000000     29.77200000     10.38200000   -0.2408  -83.8984
     C     36.19300000     27.05800000      9.91100000   -0.0126  172.6710
     N     36.81100000     29.17000000     12.19200000   -0.1321  137.3951
     C     36.73100000     30.57000000     12.64500000    0.0541  127.5171
     C     38.14800000     30.98100000     13.06900000   -0.0330   27.2608
     O     38.54400000     32.15000000     12.85600000   -0.2624  -57.6881
     C     35.70800000     30.77600000     13.80600000   -0.0312  160.4700
     C     34.22800000     30.63000000     13.31900000   -0.0290  174.2237
     N     38.88300000     30.11000000     13.71300000    0.0292  162.3266
     H     34.36300000     24.99500000     15.37200000    0.1290   26.4364
     H     35.14500000     27.71800000     15.76300000    0.0708   27.1383
     H     36.99800000     24.88000000     14.63700000    0.1029   26.3473
     H     39.53500000     26.22600000     14.54600000    0.0521   27.1412
     H     36.89700000     25.91700000     12.12400000    0.0903   26.8528
     H     38.32600000     27.22700000      9.99500000    0.0348   27.3174
     H     35.33700000     27.21800000     10.58200000    0.0297   29.5794
     H     36.11200000     27.73300000      9.04600000    0.0535   29.8182
     H     36.39600000     28.44100000     12.73600000    0.1248   24.9118
     H     36.42300000     31.20600000     11.80200000    0.0213   27.6116
     H     35.89000000     29.98800000     14.55100000    0.0052   29.4852
     H     33.94700000     31.51600000     12.73100000    0.0316   30.3695
     H     34.13500000     29.73000000     12.69300000    0.0246   30.1164
     H     38.52700000     29.20100000     13.93100000    0.1013   25.4986
     H     33.78620000     25.37640000     13.17490000    0.0158   23.3880
     H     35.68160000     26.34670000     16.76900000    0.0650   27.9262
     H     39.14480000     24.74290000     13.65570000    0.0542   28.0118
     H     36.16410000     26.01980000      9.54860000    0.0229   30.5313
     H     35.82630000     31.74690000     14.30930000    0.0355   29.4663
     H     33.56150000     30.54100000     14.18960000    0.0139   30.5946
     H     39.80890000     30.37590000     13.98150000    0.1097   27.5986
