26
chgs=0 nmr=1 
     N     40.11700000     31.75000000      9.98800000   -0.1650  128.6207
     C     39.80800000     32.99400000      9.23300000    0.1414  150.5888
     C     38.61500000     32.80100000      8.32000000   -0.1165  155.4730
     C     37.22000000     32.82200000      8.82700000    0.0176  163.9134
     C     36.35100000     33.61300000      7.83800000   -0.0744  158.9894
     C     36.32200000     32.94400000      6.47700000   -0.0463  177.3860
     C     33.81400000     30.39000000      9.03000000   -0.1822  193.9786
     C     41.39900000     31.33800000      9.96700000    0.1587   39.1770
     O     42.26000000     32.03600000      9.38100000   -0.2871  -93.5914
     H     39.41000000     31.24600000     10.48500000    0.1134   26.6547
     H     40.65200000     33.09000000      8.53400000    0.0405   25.9813
     H     38.67800000     33.59500000      7.56100000    0.0294   29.9430
     H     38.75200000     31.82100000      7.83900000    0.0238   29.4285
     H     36.84100000     31.79300000      8.91200000    0.0091   30.2278
     H     37.19200000     33.30600000      9.81400000    0.0023   30.1951
     H     35.32500000     33.67300000      8.23000000    0.0127   29.6405
     H     36.76200000     34.62700000      7.73100000    0.0223   30.3616
     H     37.34000000     32.64900000      6.18200000    0.0296   29.9773
     H     35.67700000     32.05300000      6.51000000    0.0271   30.6345
     H     34.52800000     30.11100000      9.81900000    0.0442   31.0526
     H     34.30900000     30.32700000      8.05000000    0.0504   30.9855
     H     33.46500000     31.41900000      9.19900000    0.0482   30.9892
     H     39.82940000     33.93840000      9.79660000    0.0296   28.9827
     H     35.91890000     33.67240000      5.75800000    0.0280   30.3505
     H     32.95510000     29.70310000      9.05180000    0.0444   30.9740
     H     41.63080000     30.38150000     10.45830000   -0.0014   23.2681
