13
chgs=0 nmr=1 
     O     36.86100000     37.32000000      9.82200000   -0.2805  336.8681
     C     34.76200000     40.79900000     11.47000000   -0.0429  173.7620
     C     35.61400000     40.84700000     10.24000000    0.0064  151.9926
     N     35.10000000     40.07300000      9.10100000   -0.2139  234.0364
     H     36.90400000     38.19400000      9.45200000    0.1259   31.7829
     H     35.14400000     41.54500000     12.18200000    0.0282   30.2688
     H     34.85000000     39.79400000     11.91000000    0.0172   30.4081
     H     35.70300000     41.89800000      9.92700000    0.0195   28.8389
     H     36.60900000     40.45600000     10.49800000   -0.0231   28.1825
     H     35.72800000     40.16100000      8.32700000    0.0902   31.6381
     H     35.02300000     39.11000000      9.36000000    0.0753   31.8099
     H     37.11920000     37.35200000     10.76680000    0.1619   30.6071
     H     33.69580000     41.00550000     11.29520000    0.0360   30.2396
