32
chgs=0 nmr=1 
     C     26.91300000     26.63900000      3.53100000    0.1189   46.7780
     O     27.88600000     26.46300000      4.26300000   -0.2785  -49.2055
     N     26.84900000     29.65600000      6.21700000   -0.0645  125.5309
     C     26.23500000     30.05800000      7.49700000   -0.0424  128.4507
     C     26.88200000     31.42800000      7.86200000    0.0030   31.8560
     C     26.34400000     29.05000000      8.64500000    0.0019  157.3054
     O     27.90600000     31.71100000      7.26400000   -0.2177  -22.4089
     C     25.49100000     27.77100000      8.28700000   -0.0145  171.7467
     N     26.33500000     27.77000000      3.25800000   -0.0681  124.9309
     C     26.85000000     29.02100000      3.89800000    0.0613  134.0331
     C     26.10000000     29.25300000      5.20200000    0.0448   26.2749
     O     24.86500000     29.02400000      5.33000000   -0.2817  -41.9713
     C     26.73300000     30.14800000      2.90500000   -0.0479  163.1202
     C     26.88200000     31.54600000      3.40900000   -0.0209  178.0309
     N     26.21400000     32.09700000      8.77100000    0.0155  174.3814
     H     27.84300000     29.68800000      6.11500000    0.1212   25.8035
     H     25.16500000     30.24200000      7.32000000    0.0308   26.8430
     H     25.87900000     29.50700000      9.53100000   -0.0031   29.8722
     H     25.56300000     27.04000000      9.10600000    0.0238   30.2920
     H     24.43900000     28.06000000      8.14500000    0.0294   30.1719
     H     25.87600000     27.32100000      7.36000000    0.0567   29.9083
     H     25.55800000     27.80400000      2.63000000    0.1200   26.8963
     H     27.91400000     28.87800000      4.13600000    0.0190   26.7556
     H     27.50800000     29.99200000      2.14000000    0.0317   29.5743
     H     25.73900000     30.07200000      2.44000000    0.0156   29.9709
     H     26.08500000     31.75000000      4.13900000    0.0417   30.5911
     H     27.86200000     31.64800000      3.89800000    0.0303   30.2824
     H     25.36900000     31.73600000      9.16600000    0.1251   26.9968
     H     26.45330000     25.76780000      3.04140000   -0.0251   23.7127
     H     27.39250000     28.83400000      8.89820000    0.0223   29.9245
     H     26.81290000     32.27680000      2.58970000    0.0308   30.3238
     H     26.58310000     32.98270000      9.05280000    0.1205   27.6683
