14
chgs=0 nmr=1 
     C     27.04300000     24.99200000     19.57100000    0.0039  164.2782
     C     25.93100000     25.84400000     18.95900000   -0.1820  164.2908
     C     26.20300000     26.08300000     17.47100000   -0.0034  160.5208
     C     24.57700000     25.19000000     19.07900000    0.0109  162.7323
     H     27.96900000     25.58500000     19.54900000    0.0194   30.1436
     H     27.16400000     24.09800000     18.94200000    0.0133   30.8435
     H     25.90600000     26.81600000     19.47400000    0.0130   29.7731
     H     25.39600000     26.69700000     17.04400000    0.0198   30.2151
     H     27.16300000     26.60700000     17.35300000    0.0182   30.1428
     H     26.24600000     25.11700000     16.94600000    0.0176   30.7588
     H     23.81400000     25.84000000     18.62600000    0.0183   30.2059
     H     24.59000000     24.22100000     18.55800000    0.0135   30.6650
     H     24.33900000     25.03100000     20.14100000    0.0173   30.1734
     H     26.88710000     24.65370000     20.60600000    0.0202   30.3190
