30
chgs=0 nmr=1 
     C     29.60400000     43.50700000     13.39300000    0.1262   43.0406
     O     29.21900000     43.98100000     12.30100000   -0.2961  -68.4459
     N     30.56300000     42.62300000     13.49500000   -0.0516  129.9664
     C     31.19100000     42.01200000     12.33100000    0.0243  133.5590
     C     30.45900000     40.66600000     12.13000000    0.0259   29.7620
     O     30.25300000     39.99100000     13.13300000   -0.2483   -8.0105
     C     32.67200000     41.71700000     12.50500000   -0.0052  161.3317
     C     33.28000000     41.08600000     11.22700000   -0.0560  175.2433
     N     30.79500000     37.01500000     10.09500000   -0.0102  166.1623
     N     30.16300000     40.33800000     10.88600000   -0.0572  136.3501
     C     29.54200000     39.02000000     10.65300000    0.0017  130.1322
     C     30.49400000     38.26100000      9.72900000   -0.0028   28.6807
     O     30.84900000     38.85000000      8.70600000   -0.2396  -38.1490
     C     28.11300000     39.04900000     10.01500000    0.2153  119.9109
     O     27.28000000     39.72200000     10.99600000   -0.2767  303.1417
     H     30.87700000     42.35700000     14.40600000    0.1147   26.7217
     H     31.04300000     42.64100000     11.44100000    0.0118   27.1499
     H     33.20000000     42.65600000     12.72600000    0.0293   29.9170
     H     32.80100000     41.01800000     13.34500000    0.0195   29.8256
     H     32.75600000     40.14700000     10.99400000    0.0482   30.3286
     H     33.17300000     41.78500000     10.38400000    0.0324   30.5624
     H     30.42700000     36.59700000     10.92600000    0.1282   26.6162
     H     30.35300000     40.96100000     10.12800000    0.1253   26.0232
     H     29.47700000     38.47800000     11.60800000    0.0218   26.3814
     H     28.15100000     39.62800000      9.08100000    0.0158   27.4866
     H     26.38900000     39.77600000     10.67200000    0.1540   32.1477
     H     29.14480000     43.83930000     14.33570000   -0.0139   23.4852
     H     34.34620000     40.87950000     11.40180000    0.0321   30.2747
     H     31.41480000     36.52850000      9.47920000    0.1230   27.6500
     H     27.73750000     38.03760000      9.80040000    0.0080   27.4958
