34
chgs=0 nmr=1 
     C     34.71700000     32.76000000     27.28600000   -0.0762  161.0262
     C     35.75200000     32.05400000     28.16000000   -0.0721  162.2666
     C     35.61200000     30.57700000     28.04400000    0.1305  146.4626
     N     35.04000000     30.25200000     26.73000000   -0.1674  177.9770
     C     34.33800000     29.10300000     26.65000000   -0.1401   53.2719
     N     34.11000000     28.43700000     27.76800000   -0.0127  198.9079
     N     34.01400000     28.65700000     25.45700000   -0.1981  116.8973
     C     34.23900000     35.35300000     24.97900000    0.0996   45.6325
     O     33.70700000     36.19700000     25.72800000   -0.3201  -36.8237
     C     37.73800000     31.63700000     23.71200000   -0.0291  165.0575
     C     36.33400000     31.74200000     23.08700000   -0.0303   34.3071
     O     35.57400000     32.61800000     23.48300000   -0.2514  -13.9728
     N     36.00000000     30.86000000     22.17200000    0.0154  162.2655
     N     34.93000000     34.38400000     25.45100000   -0.1024  131.1792
     C     35.16100000     34.17400000     26.89600000    0.1429  147.9043
     H     33.77000000     32.82600000     27.84100000    0.0298   29.7632
     H     34.56500000     32.17100000     26.37000000    0.0139   28.6562
     H     36.76100000     32.34900000     27.83600000    0.0141   30.2181
     H     35.60300000     32.35000000     29.20900000    0.0290   29.4277
     H     36.60000000     30.10400000     28.14300000    0.0225   28.0687
     H     34.94700000     30.20600000     28.83800000    0.0132   28.6358
     H     35.16400000     30.85000000     25.93800000    0.1316   28.1371
     H     33.66800000     27.54100000     27.73500000    0.1101   28.9159
     H     34.38000000     28.82900000     28.64700000    0.0790   27.3885
     H     33.57700000     27.75900000     25.49900000    0.0489   27.9103
     H     37.65300000     31.71100000     24.80600000    0.0493   29.5271
     H     36.65600000     30.13900000     21.94800000    0.1204   27.0593
     H     35.33500000     33.73400000     24.80800000    0.1037   22.7782
     H     34.63100000     34.92600000     27.50000000    0.0405   26.3439
     H     34.17030000     35.43990000     23.88460000   -0.0260   23.4209
     H     38.24310000     30.69940000     23.43680000    0.0233   29.7739
     H     38.30060000     32.50360000     23.33460000    0.0712   29.1638
     H     35.12530000     30.87040000     21.68750000    0.1315   27.2646
     H     36.24860000     34.26190000     27.03500000    0.0054   29.3195
