22
chgs=0 nmr=1 
     C     21.86100000     31.34200000      3.47400000   -0.0130  154.5433
     C     21.15600000     30.72600000      2.31100000   -0.0035   30.1395
     O     19.94200000     30.79300000      2.17000000   -0.2124  -48.1228
     O     21.95400000     30.15200000      1.53500000   -0.0301  160.7624
     C     21.12700000     28.24000000      5.57400000    0.1255   45.6995
     O     19.95800000     28.46500000      5.84200000   -0.2256  -94.9154
     N     21.67400000     30.03400000      8.19100000    0.0121  167.9802
     N     22.09900000     29.16300000      5.60500000   -0.1121  144.7223
     C     21.90700000     30.56300000      5.88100000   -0.0511  131.4050
     C     21.46600000     30.95300000      7.26100000    0.0236   32.5358
     O     21.06600000     32.11200000      7.53300000   -0.2428  -44.5498
     C     21.02300000     31.22300000      4.78400000    0.0268  160.7211
     H     22.03900000     32.40600000      3.26000000    0.0609   28.6291
     H     22.82400000     30.83100000      3.61900000    0.0041   29.8425
     H     21.47300000     29.77100000      0.81000000    0.1570   26.5115
     H     22.02400000     29.14200000      7.90400000    0.0991   26.4386
     H     23.03200000     28.85400000      5.42200000    0.1192   26.9490
     H     22.89500000     31.02900000      5.75500000    0.0469   28.5418
     H     20.13500000     30.60100000      4.60000000    0.0673   28.3486
     H     20.70800000     32.22400000      5.11400000    0.0411   28.2431
     H     21.50810000     27.23660000      5.33340000   -0.0138   23.6191
     H     21.50030000     30.18320000      9.16440000    0.1208   27.4963
