25
chgs=0 nmr=1 
     C     37.44100000     28.88200000     11.05200000    0.1460   38.9071
     O     38.02000000     29.77200000     10.38200000   -0.2632 -113.1174
     N     38.88300000     30.11000000     13.71300000    0.0276  174.8693
     N     36.81100000     29.17000000     12.19200000   -0.1213  128.3877
     C     36.73100000     30.57000000     12.64500000    0.1092  126.1789
     C     38.14800000     30.98100000     13.06900000   -0.0286   28.5307
     O     38.54400000     32.15000000     12.85600000   -0.2421  -84.5659
     C     35.70800000     30.77600000     13.80600000   -0.1853  145.1945
     C     34.22800000     30.63000000     13.31900000   -0.0070  156.6620
     C     35.87400000     32.13800000     14.51200000    0.0437  172.0074
     C     33.28400000     30.50400000     14.55200000   -0.0257  172.7208
     H     38.52700000     29.20100000     13.93100000    0.0909   27.0281
     H     36.39600000     28.44100000     12.73600000    0.1085   26.9774
     H     36.42300000     31.20600000     11.80200000    0.0321   27.4554
     H     35.89000000     29.98800000     14.55100000   -0.0163   30.4227
     H     33.94700000     31.51600000     12.73100000    0.0265   30.3468
     H     34.13500000     29.73000000     12.69300000    0.0043   29.7292
     H     35.13000000     32.22700000     15.31700000    0.0190   29.7319
     H     36.88600000     32.20900000     14.93800000    0.0440   30.0727
     H     35.72500000     32.94900000     13.78400000    0.0365   30.5203
     H     32.24400000     30.40100000     14.20900000    0.0320   30.0907
     H     33.56500000     29.61800000     15.14000000    0.0212   30.7874
     H     33.37700000     31.40400000     15.17800000    0.0333   29.7338
     H     37.46240000     27.81700000     10.77770000   -0.0087   23.2702
     H     39.80890000     30.37590000     13.98150000    0.1232   27.5038
