19
chgs=0 nmr=1 
     C     36.15300000     25.62000000      9.40900000   -0.0482  175.0282
     C     34.75800000     25.28000000      8.90000000   -0.0424  163.8545
     C     34.79300000     24.26400000      7.76700000   -0.0014  140.7053
     N     34.91400000     24.94400000      6.44100000   -0.2188  230.8305
     C     35.54100000     21.41800000     10.87100000    0.0959   36.8922
     N     34.62800000     21.59500000      9.92000000   -0.0421  160.2595
     O     36.77200000     21.62300000     10.67600000   -0.2847 -105.9419
     H     36.87800000     25.50100000      8.59000000    0.0373   30.0696
     H     36.41500000     24.94000000     10.23300000    0.0401   30.0479
     H     34.16900000     24.86400000      9.73100000    0.0040   29.7506
     H     34.27900000     26.20100000      8.53600000    0.0106   30.3683
     H     35.65600000     23.59600000      7.90900000    0.0378   28.9588
     H     33.86500000     23.67300000      7.78500000   -0.0162   28.1325
     H     34.93500000     24.25700000      5.71400000    0.0872   31.6502
     H     34.13000000     25.55000000      6.30400000    0.0873   32.3871
     H     34.90700000     21.90100000      9.01000000    0.1207   26.9940
     H     33.66300000     21.42200000     10.11500000    0.1161   27.4880
     H     36.18190000     26.65820000      9.77140000    0.0198   30.2864
     H     35.19910000     21.08760000     11.86290000   -0.0030   23.1784
