33
chgs=0 nmr=1 
     N     35.13900000     21.62400000     14.66200000   -0.0919  129.3132
     C     35.59000000     21.94500000     13.30200000    0.0344  134.7316
     C     35.23800000     23.38200000     12.92000000   -0.0213   31.5405
     O     36.06600000     24.10900000     12.33300000   -0.2137  -91.1922
     C     35.06400000     20.95700000     12.25500000    0.0233  152.3513
     C     35.54100000     21.41800000     10.87100000   -0.0326   30.1810
     O     36.77200000     21.62300000     10.67600000   -0.2373  -92.1042
     N     34.62800000     21.59500000      9.92000000   -0.0009  161.6502
     O     29.36700000     19.52300000     12.44100000   -0.2766  -85.7167
     C     30.49100000     19.16200000     12.04000000    0.1331   40.9852
     N     34.00700000     23.74500000     13.25000000   -0.0014  170.1680
     N     31.51000000     18.93600000     12.85200000   -0.0907  147.5844
     C     31.39800000     19.06400000     14.28600000    0.0621  147.6177
     C     31.59300000     20.55300000     14.65500000    0.0045   29.8171
     O     32.15900000     21.31100000     13.86100000   -0.2217  -28.2598
     N     31.11300000     20.86300000     15.86000000   -0.0051  163.7856
     C     35.61500000     22.19000000     15.75900000    0.1240   41.3075
     O     36.53200000     23.04600000     15.72400000   -0.2674 -109.4378
     H     34.42500000     20.93200000     14.76600000    0.1002   27.6315
     H     36.68700000     21.87000000     13.28900000    0.0533   26.7412
     H     35.45300000     19.95000000     12.46600000    0.0382   29.2943
     H     33.96400000     20.93800000     12.28200000   -0.0105   28.7368
     H     34.90700000     21.90100000      9.01000000    0.1255   27.4452
     H     33.66300000     21.42200000     10.11500000    0.1064   27.2000
     H     33.39700000     23.08600000     13.69000000    0.0884   25.6760
     H     32.38900000     18.66700000     12.45900000    0.1233   26.9201
     H     30.40500000     18.73500000     14.62700000    0.0543   27.0937
     H     30.62600000     20.16900000     16.39000000    0.1281   26.8157
     H     30.71360000     19.10430000     10.96430000   -0.0035   23.1926
     H     33.68200000     24.67210000     13.06350000    0.1123   27.9038
     H     32.16550000     18.45290000     14.78340000    0.0578   28.4800
     H     31.23290000     21.77950000     16.24150000    0.1323   27.1794
     H     35.18920000     21.84880000     16.71410000   -0.0268   23.3119
