19
chgs=0 nmr=1 
     C     41.84500000     36.55000000     32.68600000    0.1626  148.7707
     C     41.25100000     37.94100000     32.58800000   -0.0359   33.8909
     O     41.10200000     38.52300000     31.50000000   -0.2413  -58.3612
     N     40.94600000     38.47200000     33.75700000   -0.1307  142.4212
     C     40.37300000     39.81300000     33.94400000    0.1679  144.4355
     C     40.03100000     39.99200000     35.43200000   -0.0176   26.8030
     O     38.93300000     40.52500000     35.68700000   -0.0047  160.5231
     O     40.86200000     39.57500000     36.25100000   -0.2420  -60.6191
     C     41.76500000     34.82900000     30.94400000    0.1339   42.0472
     O     42.94500000     34.99400000     30.58300000   -0.2704  -67.7794
     N     41.16500000     35.53100000     31.89800000   -0.1143  144.3702
     H     41.81600000     36.24100000     33.74100000    0.0053   28.8800
     H     42.89000000     36.60100000     32.34800000    0.0681   26.1291
     H     41.11700000     37.92200000     34.57500000    0.1218   26.9391
     H     41.10400000     40.57500000     33.63700000    0.0733   27.6037
     H     39.46000000     39.91500000     33.33800000    0.0495   27.7021
     H     38.81400000     40.57100000     36.62800000    0.1722   25.7493
     H     40.19900000     35.35100000     32.08500000    0.1124   27.6276
     H     41.12190000     34.08860000     30.44580000   -0.0102   23.4704
