18
chgs=0 nmr=1 
     N     27.34000000     24.43000000      2.61400000   -0.1424  220.0443
     C     26.26600000     25.41300000      2.84200000   -0.0469  133.5707
     C     26.91300000     26.63900000      3.53100000   -0.0976   33.4417
     O     27.88600000     26.46300000      4.26300000   -0.2088  -45.7812
     C     25.11200000     24.88000000      3.64900000    0.0445  157.0693
     C     25.35300000     24.86000000      5.13400000   -0.1063  162.0708
     S     23.93000000     23.95900000      5.90400000   -0.1167  632.4987
     N     26.33500000     27.77000000      3.25800000    0.0460  173.9777
     H     26.96100000     23.61900000      2.16800000    0.0793   31.9790
     H     28.04300000     24.83400000      2.02900000    0.0881   31.7396
     H     25.88000000     25.74300000      1.86700000   -0.0138   27.8597
     H     24.23300000     25.51000000      3.45100000    0.0122   29.8693
     H     24.90700000     23.85100000      3.31900000    0.0264   30.1377
     H     26.29500000     24.33800000      5.35600000    0.0766   28.2075
     H     25.40300000     25.88800000      5.52200000    0.0660   29.2117
     H     25.55800000     27.80400000      2.63000000    0.1110   27.2737
     H     24.31650000     23.97770000      7.18690000    0.0674   30.2620
     H     26.67910000     28.60590000      3.68560000    0.1149   27.6363
