13
chgs=0 nmr=1 
     C     22.94500000     21.95100000     17.78500000    0.0145   74.6365
     C     24.27200000     21.54400000     17.64400000   -0.0006   66.4645
     C     22.43700000     22.15700000     19.06500000    0.0011   65.5742
     C     25.05200000     21.28500000     18.77600000   -0.0357   85.3820
     C     23.20400000     21.90700000     20.19200000   -0.0065   80.5990
     C     24.51700000     21.47000000     20.03000000    0.1360   40.9146
     O     25.24800000     21.30200000     21.19100000   -0.1712  212.7715
     H     24.69800000     21.42900000     16.65800000   -0.0137   24.4973
     H     21.42600000     22.51800000     19.18200000   -0.0140   24.4170
     H     26.07000000     20.94100000     18.66600000   -0.0386   25.3218
     H     22.79100000     22.04900000     21.18000000   -0.0203   24.7232
     H     26.12400000     21.00400000     20.97400000    0.1587   28.4660
     H     22.31860000     22.17170000     16.90810000   -0.0097   24.5114
