37
chgs=0 nmr=1 
     N     29.59900000     18.59900000      9.82800000    0.0122  151.3182
     C     28.46800000     20.94000000      5.98000000    0.0184  158.1301
     C     27.81900000     20.60900000      7.31600000    0.0153   31.6783
     O     28.44900000     20.67400000      8.36000000   -0.2511  -31.1558
     C     29.21300000     19.69700000      5.50600000   -0.0502  176.2207
     N     26.55900000     20.22000000      7.28800000   -0.2728  121.8178
     C     25.82900000     19.82500000      8.49400000    0.0850  128.3520
     C     26.54100000     18.73200000      9.25100000    0.0249   32.2687
     O     26.33300000     18.53600000     10.45700000   -0.2362  -57.7338
     C     24.46900000     19.33200000      7.95200000    0.0236  155.2132
     C     24.29900000     20.13400000      6.70400000   -0.0148  161.7965
     C     25.71400000     20.10800000      6.07300000    0.1193  134.3567
     N     27.36100000     17.95900000      8.55900000   -0.1305  154.5099
     C     28.05400000     16.83500000      9.21000000    0.0510  135.5605
     C     29.25800000     17.31800000      9.98400000   -0.0155   26.4488
     O     29.93000000     16.47700000     10.60600000   -0.2583  -26.9373
     C     28.52300000     15.82000000      8.18200000    0.1737  125.4338
     O     28.94600000     16.44500000      6.96700000   -0.2940  315.9696
     H     29.07000000     19.20900000      9.23800000    0.1021   23.5838
     H     27.69800000     21.22000000      5.24600000    0.0119   28.5594
     H     30.07700000     19.54500000      6.16900000    0.0497   29.8367
     H     28.53000000     18.83800000      5.59000000    0.0221   30.2832
     H     25.66900000     20.69300000      9.15000000    0.0376   27.3063
     H     24.49800000     18.25500000      7.73000000    0.0182   29.6942
     H     23.65900000     19.53700000      8.66800000    0.0469   28.8795
     H     23.56000000     19.67000000      6.03400000    0.0309   29.4570
     H     23.98900000     21.16400000      6.93600000    0.0358   29.4697
     H     25.90100000     19.16700000      5.53500000    0.0360   27.8842
     H     25.87000000     20.95700000      5.39100000    0.0478   27.4035
     H     27.51100000     18.13900000      7.58700000    0.1215   25.7055
     H     27.36300000     16.33700000      9.90600000    0.0514   27.4174
     H     29.36700000     15.25300000      8.60200000    0.0334   26.7034
     H     27.69400000     15.13200000      7.95800000    0.0029   27.5907
     H     29.23100000     15.78000000      6.35100000    0.1641   32.1831
     H     30.40390000     18.92440000     10.32420000    0.1134   27.4082
     H     29.15330000     21.77930000      6.16940000    0.0391   29.3926
     H     29.58180000     19.73850000      4.47050000    0.0351   30.2654
