24
chgs=0 nmr=1 
     N     35.13900000     21.62400000     14.66200000   -0.0111  167.6995
     C     31.39800000     19.06400000     14.28600000   -0.0214  162.9444
     C     35.03100000     21.72200000     17.06900000   -0.0066  157.5317
     C     35.61500000     22.19000000     15.75900000   -0.0533   26.3068
     C     32.49200000     18.19300000     14.99500000    0.0071  116.8277
     C     35.66700000     20.38300000     17.44700000   -0.0421  174.3823
     C     32.35200000     16.70000000     14.63000000   -0.0208  162.9480
     O     36.53200000     23.04600000     15.72400000   -0.2605  -77.1167
     O     33.77800000     18.73900000     14.51600000   -0.2860  262.1445
     H     34.42500000     20.93200000     14.76600000    0.0954   26.4190
     H     30.40500000     18.73500000     14.62700000    0.0315   30.2463
     H     35.24600000     22.46200000     17.85400000    0.0334   29.2501
     H     32.40300000     18.31600000     16.08500000    0.0201   27.0652
     H     35.07400000     19.98200000     18.28200000    0.0260   30.1904
     H     35.55700000     19.72700000     16.57100000   -0.0155   30.4958
     H     33.13400000     16.12100000     15.14400000    0.0268   30.1382
     H     31.36200000     16.33700000     14.94300000    0.0321   30.0807
     H     32.46000000     16.57700000     13.54200000    0.0367   30.0533
     H     34.49400000     18.25400000     14.90900000    0.1654   31.5631
     H     35.44610000     21.84260000     13.73580000    0.1114   27.8001
     H     31.48330000     18.96650000     13.19370000    0.0364   30.0341
     H     31.53670000     20.12320000     14.54850000    0.0352   29.8379
     H     33.94390000     21.57830000     16.98180000    0.0165   29.2890
     H     36.72140000     20.31800000     17.75370000    0.0433   30.0029
