33
chgs=0 nmr=1 
     N     31.11300000     20.86300000     15.86000000   -0.1053  128.9975
     C     31.28800000     22.20100000     16.41700000    0.0294  131.9580
     C     32.77600000     22.51900000     16.57700000   -0.0072   30.0572
     O     33.23300000     23.65900000     16.38400000   -0.2264  -73.6547
     C     30.52000000     22.30000000     17.76400000   -0.1687  149.3448
     C     29.00600000     22.04300000     17.44200000    0.0051  161.7204
     C     30.83200000     23.69900000     18.35800000    0.0323  173.1692
     C     28.40700000     22.94800000     16.36600000   -0.0585  182.3992
     N     33.54800000     21.52600000     16.95000000    0.0266  172.1242
     C     31.59300000     20.55300000     14.65500000    0.1336   41.8701
     O     32.15900000     21.31100000     13.86100000   -0.2340  -85.6029
     C     32.06000000     25.25700000     13.36400000   -0.0895  179.8611
     C     31.15200000     24.42100000     12.47700000   -0.1008  180.8102
     H     30.62600000     20.16900000     16.39000000    0.1171   26.8090
     H     30.85300000     22.93800000     15.72600000    0.0485   27.2807
     H     30.88200000     21.52100000     18.45100000   -0.0036   29.9469
     H     28.90200000     21.00100000     17.10700000   -0.0029   29.8815
     H     28.43100000     22.19000000     18.36800000    0.0237   29.8750
     H     30.30700000     23.81600000     19.31800000    0.0213   30.6424
     H     31.91600000     23.79500000     18.51900000    0.0538   29.8062
     H     30.49400000     24.47800000     17.65800000    0.0387   30.0335
     H     27.34900000     22.68900000     16.21600000    0.0327   30.4842
     H     28.48600000     23.99800000     16.68500000    0.0396   30.3496
     H     28.95600000     22.80900000     15.42300000    0.0523   30.2638
     H     33.14600000     20.63400000     17.15600000    0.0939   26.9618
     H     31.94400000     24.89900000     14.39800000    0.0356   29.5448
     H     30.10600000     24.56300000     12.78500000    0.0099   30.8111
     H     31.27200000     24.73600000     11.43000000    0.0151   30.5400
     H     31.42200000     23.35900000     12.57400000    0.0469   29.6346
     H     34.53630000     21.65660000     17.02930000    0.1227   27.4345
     H     31.45430000     19.49380000     14.39250000   -0.0187   23.4461
     H     33.11820000     25.14210000     13.08670000    0.0271   30.4236
     H     31.79120000     26.32350000     13.34830000    0.0101   30.6223
