33
chgs=0 nmr=1 
     C     36.01200000     30.86000000     19.22100000   -0.1805  192.5233
     C     35.92600000     35.97900000     21.73700000   -0.0871  170.0474
     C     35.00300000     35.08400000     20.92000000   -0.0430  170.0136
     C     36.53300000     37.08700000     20.91700000   -0.0472  172.0692
     C     40.22600000     33.71600000     17.50900000    0.0043  161.2029
     C     38.69300000     34.10600000     17.59500000   -0.1921  150.8484
     C     38.47100000     35.54600000     17.04500000   -0.0294  153.6170
     C     38.14600000     33.93200000     19.02700000    0.0041  164.8493
     C     36.95800000     35.74600000     16.68000000   -0.0326  172.3939
     H     35.81700000     31.93400000     19.08500000    0.0470   30.9235
     H     36.97000000     30.72500000     19.74400000    0.0493   31.0534
     H     36.73600000     35.36100000     22.15200000    0.0185   30.0015
     H     35.56200000     34.65300000     20.07600000    0.0155   29.8378
     H     34.62000000     34.27400000     21.55700000    0.0250   30.1252
     H     34.16100000     35.67900000     20.53700000    0.0208   30.4637
     H     37.11000000     36.65500000     20.08600000    0.0253   30.2954
     H     35.73300000     37.72600000     20.51500000    0.0211   30.4874
     H     37.20000000     37.68900000     21.55100000    0.0242   30.1200
     H     40.79400000     34.38800000     18.16900000    0.0185   30.5237
     H     38.14400000     33.41300000     16.94100000    0.0079   30.0485
     H     38.76200000     36.27900000     17.81200000    0.0186   30.2704
     H     39.08700000     35.69300000     16.14500000    0.0124   29.9125
     H     37.08200000     34.21100000     19.05000000    0.0321   29.1392
     H     38.25700000     32.88200000     19.33700000    0.0225   30.0611
     H     38.70900000     34.57900000     19.71600000    0.0233   30.7405
     H     36.80500000     36.76400000     16.29200000    0.0252   30.1817
     H     36.66600000     35.01400000     15.91300000    0.0234   30.6014
     H     36.34200000     35.60000000     17.57900000    0.0236   29.9221
     H     35.20410000     30.41700000     19.82190000    0.0421   30.9942
     H     36.06390000     30.37270000     18.23620000    0.0432   30.9619
     H     35.34590000     36.39700000     22.57290000    0.0188   30.0200
     H     40.53700000     33.86550000     16.46450000    0.0228   30.2056
     H     40.38750000     32.67470000     17.82470000    0.0221   30.2030
