24
chgs=0 nmr=1 
     C     30.92500000     34.30400000     17.75300000   -0.0008  160.8013
     C     32.34500000     34.18300000     18.35800000   -0.1948  162.9196
     C     32.55500000     32.78300000     18.87000000    0.0136  163.3686
     C     33.36100000     34.49100000     17.24500000   -0.0031  159.8432
     C     35.00300000     35.08400000     20.92000000   -0.1846  193.5781
     C     36.95800000     35.74600000     16.68000000   -0.1795  192.9060
     H     30.79800000     33.52100000     16.99100000    0.0145   30.7828
     H     30.82500000     35.29300000     17.28200000    0.0168   30.2306
     H     32.46000000     34.90800000     19.17700000    0.0188   29.7087
     H     33.56400000     32.69700000     19.30000000    0.0184   30.1653
     H     31.80600000     32.56000000     19.64400000    0.0178   30.1894
     H     32.44800000     32.06900000     18.04000000    0.0137   30.8062
     H     34.38200000     34.41200000     17.64800000    0.0206   29.9388
     H     33.23400000     33.77100000     16.42300000    0.0146   30.7029
     H     33.19300000     35.51100000     16.86800000    0.0199   30.2304
     H     35.56200000     34.65300000     20.07600000    0.0539   30.8203
     H     34.62000000     34.27400000     21.55700000    0.0458   30.9664
     H     34.16100000     35.67900000     20.53700000    0.0529   30.8093
     H     36.80500000     36.76400000     16.29200000    0.0430   30.9871
     H     36.66600000     35.01400000     15.91300000    0.0463   31.0701
     H     36.34200000     35.60000000     17.57900000    0.0516   30.8648
     H     30.13450000     34.19220000     18.50970000    0.0193   30.1904
     H     35.66950000     35.73030000     21.51000000    0.0403   30.9873
     H     38.01860000     35.60580000     16.93590000    0.0409   31.0339
