40
chgs=0 nmr=1 
     N     27.34000000     24.43000000      2.61400000   -0.1394  225.4531
     C     31.82700000     27.26200000      2.89400000    0.0306  172.2155
     C     26.91300000     26.63900000      3.53100000   -0.0477   31.0658
     O     27.88600000     26.46300000      4.26300000   -0.2101  -20.5749
     C     26.26600000     25.41300000      2.84200000    0.0421  141.8790
     N     30.31000000     25.45800000      5.38400000   -0.0743  139.1354
     C     30.28800000     24.24500000      6.19300000   -0.0123  134.9426
     C     29.27900000     23.22700000      5.64100000   -0.0330   30.0678
     O     28.47800000     23.52200000      4.72500000   -0.1868  -92.0973
     C     29.90300000     24.59000000      7.66500000   -0.0036  157.9597
     C     28.47600000     25.13500000      7.70500000   -0.0470  179.0969
     N     26.33500000     27.77000000      3.25800000    0.0249  167.8101
     N     29.38000000     22.05700000      6.23200000    0.0136  174.6313
     C     31.02200000     29.28800000      5.66500000    0.1125   47.5466
     O     29.80900000     29.39500000      5.54500000   -0.2753  -40.8817
     N     31.83400000     28.41200000      5.12500000   -0.0897  125.2719
     C     31.22000000     27.34100000      4.27500000   -0.0055  141.1605
     C     31.44000000     26.07900000      5.08000000    0.0349   31.1253
     O     32.57600000     25.80200000      5.46100000   -0.2673   10.0640
     H     26.96100000     23.61900000      2.16800000    0.0742   31.5714
     H     28.04300000     24.83400000      2.02900000    0.0767   32.2314
     H     32.92200000     27.30900000      2.98900000    0.0224   30.0743
     H     31.53900000     26.30300000      2.43900000    0.0291   30.4091
     H     25.88000000     25.74300000      1.86700000   -0.0168   27.6168
     H     29.44600000     25.83300000      5.04800000    0.1493   22.3069
     H     31.28700000     23.78400000      6.19600000    0.0270   26.9174
     H     29.89100000     23.63600000      8.21200000   -0.0136   30.1247
     H     28.20500000     25.37800000      8.74300000    0.0176   30.6789
     H     28.41300000     26.04300000      7.08700000    0.0440   29.9445
     H     27.78300000     24.37600000      7.31300000    0.0353   30.4557
     H     25.55800000     27.80400000      2.63000000    0.1124   26.9321
     H     30.12100000     21.92300000      6.89000000    0.1113   27.3663
     H     32.82200000     28.45600000      5.27400000    0.1201   26.5509
     H     30.13900000     27.52500000      4.18300000    0.0260   25.7451
     H     31.49770000     28.07680000      2.23250000    0.0292   30.3162
     H     25.42290000     25.02360000      3.43160000    0.0480   28.0625
     H     30.60400000     25.25220000      8.19420000    0.0340   29.6241
     H     26.67910000     28.60590000      3.68560000    0.1316   27.0719
     H     28.75700000     21.29400000      6.05990000    0.1100   27.6650
     H     31.49180000     29.99600000      6.36360000   -0.0344   23.5968
