22
chgs=0 nmr=1 
     N     19.81000000     29.37800000     18.57800000    0.0070  163.4228
     C     22.12600000     29.06200000     18.18300000    0.0089  145.4307
     C     20.83500000     28.62900000     18.90400000   -0.0538   34.7664
     O     20.82100000     27.73400000     19.74900000   -0.2287  -27.2261
     C     22.49400000     28.05700000     17.10900000    0.0664  153.4658
     C     21.44700000     27.86900000     16.02600000   -0.0487   54.6395
     C     21.32500000     28.81300000     15.00500000   -0.0200   68.0768
     C     20.63800000     26.73500000     16.05300000    0.0007   63.9544
     C     20.36900000     28.64800000     14.00100000    0.0200   65.2149
     C     19.67700000     26.53900000     15.05100000    0.0213   66.2458
     C     19.59300000     27.46500000     14.02100000    0.0082   67.7836
     H     19.96200000     30.14700000     17.95600000    0.1109   27.7959
     H     21.95700000     30.04300000     17.71400000   -0.0075   29.5718
     H     23.42500000     28.39400000     16.63000000    0.0218   28.6530
     H     22.66300000     27.08400000     17.59400000    0.0263   28.5208
     H     21.97400000     29.67600000     14.99200000   -0.0299   24.3800
     H     20.75100000     26.00800000     16.84400000   -0.0125   24.3313
     H     20.22700000     29.39700000     13.23600000   -0.0154   24.1141
     H     19.01600000     25.68500000     15.08000000   -0.0138   24.2142
     H     18.91100000     27.27600000     13.20500000   -0.0138   24.4883
     H     18.88390000     29.21880000     18.92010000    0.1110   28.3620
     H     22.88480000     29.15540000     18.97390000    0.0416   29.0618
