47
chgs=0 nmr=1 
     C     27.58800000     37.63500000      9.71500000   -0.0990  172.6827
     N     30.79500000     37.01500000     10.09500000   -0.1209  139.6980
     C     31.72000000     36.28900000      9.17600000    0.1089  149.8476
     N     28.26000000     33.94300000     11.09600000   -0.0859  139.8698
     C     28.60500000     33.96500000     12.50300000    0.0010  130.6309
     C     28.63800000     35.46100000     12.90000000    0.0406   26.9495
     O     29.52200000     36.10300000     12.32000000   -0.2644   11.0893
     C     29.96300000     33.31700000     12.81400000   -0.0079  159.4126
     C     30.95500000     35.21100000      8.45900000    0.0079   26.9295
     C     29.95700000     31.83800000     12.35200000   -0.0156  176.6249
     O     30.02500000     34.61800000      9.04000000   -0.2578  -30.4484
     N     27.75100000     35.86700000     13.74000000    0.0530  170.7615
     N     31.24400000     34.98600000      7.19700000    0.0116  161.5779
     C     26.77200000     33.43600000      9.19700000    0.0343  160.4144
     C     27.15100000     33.36200000     10.65000000   -0.0197   26.7849
     O     26.35000000     32.77800000     11.39500000   -0.2827  -48.3466
     C     25.69500000     34.49800000      8.94600000   -0.0551  174.1117
     C     29.54200000     39.02000000     10.65300000    0.0440  149.8491
     C     30.49400000     38.26100000      9.72900000   -0.0274   29.6688
     O     30.84900000     38.85000000      8.70600000   -0.2642  -20.9002
     C     28.11300000     39.04900000     10.01500000   -0.0328  163.5553
     H     26.58500000     37.70300000      9.26900000    0.0405   30.4264
     H     28.26800000     37.13300000      9.01200000    0.0510   30.4094
     H     27.53600000     37.05800000     10.65000000    0.0329   30.6962
     H     30.42700000     36.59700000     10.92600000    0.1237   21.5421
     H     32.03600000     37.01200000      8.41000000    0.0215   26.2457
     H     28.87600000     34.37900000     10.44000000    0.1179   22.7486
     H     27.82500000     33.46000000     13.09200000   -0.0011   27.1321
     H     30.75600000     33.85900000     12.27900000    0.0219   29.4201
     H     30.93100000     31.37900000     12.57700000    0.0228   30.4589
     H     29.16300000     31.29200000     12.88200000    0.0302   30.5516
     H     29.77200000     31.79300000     11.26900000    0.0352   30.0349
     H     27.09800000     35.21600000     14.12700000    0.1363   26.4609
     H     31.93100000     35.53000000      6.71500000    0.1262   26.6863
     H     27.66100000     33.67200000      8.59400000   -0.0034   28.9383
     H     24.80600000     34.23900000      9.53900000    0.0313   30.0976
     H     26.08400000     35.47300000      9.27400000    0.0240   30.3083
     H     29.47700000     38.47800000     11.60800000   -0.0160   28.9882
     H     28.15100000     39.62800000      9.08100000    0.0288   29.6279
     H     32.63200000     35.99860000      9.71820000    0.0597   28.1446
     H     30.14340000     33.37300000     13.89770000    0.0113   29.9852
     H     27.71110000     36.82960000     14.00790000    0.1239   27.3865
     H     30.74910000     34.24800000      6.73830000    0.1285   27.1299
     H     26.36600000     32.46180000      8.88710000    0.0252   29.3812
     H     25.39800000     34.57900000      7.89000000    0.0249   30.5584
     H     30.00500000     40.00260000     10.82670000    0.0244   29.4400
     H     27.48210000     39.55870000     10.75800000    0.0105   29.9906
