27
chgs=0 nmr=1 
     N     29.59900000     18.59900000      9.82800000   -0.0005  154.1694
     C     27.81900000     20.60900000      7.31600000    0.1558   43.8926
     O     28.44900000     20.67400000      8.36000000   -0.2570  -65.9275
     N     26.55900000     20.22000000      7.28800000   -0.2740  113.8466
     C     25.82900000     19.82500000      8.49400000    0.0751  128.1938
     C     26.54100000     18.73200000      9.25100000    0.0231   33.3155
     O     26.33300000     18.53600000     10.45700000   -0.2273  -57.2777
     C     24.46900000     19.33200000      7.95200000    0.0179  156.7569
     C     24.29900000     20.13400000      6.70400000   -0.0314  162.2012
     C     25.71400000     20.10800000      6.07300000    0.1331  139.2963
     N     27.36100000     17.95900000      8.55900000   -0.1398  157.4432
     C     28.05400000     16.83500000      9.21000000    0.1435  145.8096
     C     29.25800000     17.31800000      9.98400000   -0.0520   31.2168
     O     29.93000000     16.47700000     10.60600000   -0.2592  -43.4654
     H     29.07000000     19.20900000      9.23800000    0.0937   23.9260
     H     25.66900000     20.69300000      9.15000000    0.0437   27.3148
     H     24.49800000     18.25500000      7.73000000    0.0220   29.7815
     H     23.65900000     19.53700000      8.66800000    0.0517   28.9011
     H     23.56000000     19.67000000      6.03400000    0.0370   29.4307
     H     23.98900000     21.16400000      6.93600000    0.0397   29.5432
     H     25.90100000     19.16700000      5.53500000    0.0374   28.1028
     H     25.87000000     20.95700000      5.39100000    0.0426   27.6778
     H     27.51100000     18.13900000      7.58700000    0.1088   26.5805
     H     27.36300000     16.33700000      9.90600000    0.0585   27.2565
     H     30.40390000     18.92440000     10.32420000    0.1154   27.5629
     H     28.28810000     20.84830000      6.35030000   -0.0023   23.2405
     H     28.39370000     16.09990000      8.46550000    0.0446   28.4715
