29
chgs=0 nmr=1 
     C     34.73800000     30.87500000     21.47300000    0.1546  152.2261
     C     34.87600000     30.23700000     20.06600000   -0.1087  159.0346
     C     36.01200000     30.86000000     19.22100000   -0.0254  156.9626
     C     36.08300000     30.19400000     17.87500000   -0.0459   30.7479
     O     35.04800000     29.70200000     17.39300000   -0.2503  -68.2025
     N     37.22800000     30.12600000     17.23300000    0.0203  168.6408
     C     32.55500000     32.78300000     18.87000000   -0.1821  193.0075
     C     36.33400000     31.74200000     23.08700000    0.1096   45.2015
     O     35.57400000     32.61800000     23.48300000   -0.2651  -78.5132
     C     38.14600000     33.93200000     19.02700000   -0.1807  192.2646
     N     36.00000000     30.86000000     22.17200000   -0.1141  144.4361
     H     34.44500000     31.92400000     21.31900000    0.0240   27.7371
     H     35.08000000     29.16300000     20.18800000    0.0213   30.0523
     H     33.92600000     30.37100000     19.52700000    0.0586   28.8132
     H     35.81700000     31.93400000     19.08500000    0.0590   29.2709
     H     36.97000000     30.72500000     19.74400000   -0.0031   29.5174
     H     37.27600000     29.67300000     16.34300000    0.1203   27.3789
     H     38.05100000     30.52700000     17.63500000    0.1059   27.3835
     H     33.56400000     32.69700000     19.30000000    0.0427   31.1717
     H     31.80600000     32.56000000     19.64400000    0.0452   30.9655
     H     32.44800000     32.06900000     18.04000000    0.0608   30.7422
     H     37.08200000     34.21100000     19.05000000    0.0607   30.9706
     H     38.25700000     32.88200000     19.33700000    0.0287   31.2539
     H     38.70900000     34.57900000     19.71600000    0.0517   30.8585
     H     36.65600000     30.13900000     21.94800000    0.1122   28.1982
     H     33.90320000     30.37660000     21.98740000    0.0378   28.5157
     H     32.40160000     33.80600000     18.49590000    0.0401   30.9902
     H     37.33660000     31.66700000     23.53330000   -0.0215   23.3203
     H     38.53600000     34.05610000     18.00600000    0.0432   31.0004
