28
chgs=0 nmr=1 
     C     22.92400000     18.58300000     12.02500000   -0.0954  180.1893
     C     23.05900000     17.32600000     11.15400000   -0.0847  178.4562
     C     27.81900000     20.60900000      7.31600000    0.1265   45.0976
     O     28.44900000     20.67400000      8.36000000   -0.2370 -103.6255
     N     26.55900000     20.22000000      7.28800000   -0.2766  121.8632
     C     25.82900000     19.82500000      8.49400000    0.0462  128.9659
     C     26.54100000     18.73200000      9.25100000    0.0078   32.0351
     O     26.33300000     18.53600000     10.45700000   -0.2274  -44.2316
     C     24.46900000     19.33200000      7.95200000   -0.0111  156.5695
     C     24.29900000     20.13400000      6.70400000   -0.0187  161.9737
     C     25.71400000     20.10800000      6.07300000    0.1357  139.9325
     N     27.36100000     17.95900000      8.55900000    0.0100  173.2610
     H     22.28300000     19.29200000     11.48000000    0.0117   30.6189
     H     22.06600000     16.87100000     11.02100000    0.0162   30.5856
     H     23.46700000     17.60900000     10.17200000    0.0203   30.5103
     H     25.66900000     20.69300000      9.15000000    0.0415   27.4741
     H     24.49800000     18.25500000      7.73000000    0.0267   29.7269
     H     23.65900000     19.53700000      8.66800000    0.0602   28.8629
     H     23.56000000     19.67000000      6.03400000    0.0313   29.4774
     H     23.98900000     21.16400000      6.93600000    0.0366   29.6163
     H     25.90100000     19.16700000      5.53500000    0.0302   28.1792
     H     25.87000000     20.95700000      5.39100000    0.0375   27.7480
     H     27.51100000     18.13900000      7.58700000    0.1018   26.9680
     H     23.89930000     19.06470000     12.18880000    0.0500   29.8143
     H     22.41860000     18.33650000     12.97040000    0.0249   30.4325
     H     23.73100000     16.59430000     11.62630000    0.0339   30.3579
     H     28.28810000     20.84830000      6.35030000   -0.0192   23.1251
     H     27.83170000     17.19550000      9.00120000    0.1212   27.6875
