20
chgs=0 nmr=1 
     C     28.97800000     43.96000000     14.67800000    0.1307  148.0930
     C     29.60400000     43.50700000     13.39300000   -0.0552   34.9457
     O     29.21900000     43.98100000     12.30100000   -0.2466  -53.7184
     O     29.58600000     43.57000000     19.48300000   -0.2610  -98.5238
     N     30.56300000     42.62300000     13.49500000    0.0162  173.6845
     N     30.99100000     42.57100000     17.99800000   -0.1981  135.8816
     C     31.42200000     43.94000000     17.55300000    0.1616  149.0641
     C     30.75500000     44.35100000     16.27700000   -0.0533   35.8406
     O     31.20700000     45.26800000     15.56600000   -0.2476  -55.1517
     N     29.72100000     43.67300000     15.88500000   -0.0919  156.4686
     C     30.07500000     42.53800000     18.98400000    0.1435   39.3837
     H     27.99600000     43.47100000     14.76400000    0.0527   28.4266
     H     28.84100000     45.05000000     14.61900000    0.0660   27.1864
     H     30.87700000     42.35700000     14.40600000    0.0884   26.8629
     H     31.36100000     41.73700000     17.58800000    0.1217   26.7127
     H     31.15100000     44.66200000     18.33700000    0.0855   25.6600
     H     29.42000000     42.90600000     16.45100000    0.1065   26.0259
     H     30.99400000     42.20360000     12.69610000    0.1219   27.6925
     H     32.51930000     43.92450000     17.47690000    0.0527   28.2382
     H     29.73530000     41.55230000     19.33460000    0.0063   23.1354
