26
chgs=0 nmr=1 
     C     28.63800000     35.46100000     12.90000000    0.0963   46.5860
     O     29.52200000     36.10300000     12.32000000   -0.2890  -56.9239
     N     29.42600000     38.43000000     15.44600000   -0.0980  135.1183
     C     30.22500000     38.64300000     16.66200000    0.0926  147.6495
     C     29.66400000     39.83900000     17.43400000   -0.0477   33.1861
     O     28.85000000     40.56500000     16.85900000   -0.2316  -59.4805
     N     30.13200000     40.06900000     18.64200000    0.0062  174.9939
     N     27.75100000     35.86700000     13.74000000   -0.0547  130.1264
     C     27.69100000     37.31500000     14.14300000    0.0589  134.7329
     C     28.46900000     37.47500000     15.42000000    0.0852   25.6892
     O     28.21300000     36.75300000     16.41100000   -0.2697  -34.6717
     C     26.21900000     37.68400000     14.30700000   -0.0587  159.0165
     C     25.88400000     39.13900000     14.61500000   -0.0268  177.6571
     H     29.59100000     38.99300000     14.63600000    0.1217   26.1112
     H     30.16200000     37.75100000     17.30200000    0.0511   26.7323
     H     30.85500000     39.48300000     19.00900000    0.1120   27.5899
     H     27.09800000     35.21600000     14.12700000    0.1257   26.8263
     H     28.13900000     37.93800000     13.35500000    0.0087   27.0980
     H     25.70800000     37.42000000     13.36900000    0.0270   29.8108
     H     25.81700000     37.07300000     15.12800000    0.0263   29.4345
     H     26.30200000     39.41600000     15.59400000    0.0558   29.9947
     H     26.30900000     39.79000000     13.83700000    0.0238   30.4581
     H     28.61460000     34.39800000     12.61790000   -0.0223   23.3381
     H     31.28290000     38.80740000     16.40920000    0.0513   28.3780
     H     29.77730000     40.81960000     19.19940000    0.1242   27.4411
     H     24.78990000     39.25080000     14.63420000    0.0315   30.2888
