12
chgs=0 nmr=1 
     C     22.92400000     18.58300000     12.02500000   -0.0537  171.8081
     O     23.91400000     16.39500000     11.75500000   -0.2718  309.3748
     O     25.92500000     16.61100000     13.91300000   -0.2942  331.3589
     C     23.05900000     17.32600000     11.15400000    0.0953  130.0913
     H     22.28300000     19.29200000     11.48000000    0.0187   30.5435
     H     23.98400000     15.62600000     11.20200000    0.1486   32.4970
     H     25.65000000     15.90600000     13.33900000    0.1306   31.5949
     H     22.06600000     16.87100000     11.02100000    0.0004   27.4030
     H     23.46700000     17.60900000     10.17200000   -0.0016   27.4452
     H     23.89930000     19.06470000     12.18880000    0.0414   29.8376
     H     22.41860000     18.33650000     12.97040000    0.0416   29.8267
     H     26.82680000     16.90240000     13.66360000    0.1449   31.2251
