30
chgs=0 nmr=1 
     N     34.73400000     25.82200000     14.94900000    0.0002  175.8555
     C     35.23800000     23.38200000     12.92000000    0.1404   40.2664
     O     36.06600000     24.10900000     12.33300000   -0.2422  -94.1029
     C     36.15300000     25.62000000      9.40900000   -0.0895  183.3442
     C     34.75800000     25.28000000      8.90000000   -0.0935  181.1611
     N     34.00700000     23.74500000     13.25000000   -0.0966  128.8331
     C     33.53300000     25.09700000     12.97800000    0.0686  127.2351
     C     34.44100000     26.09900000     13.68400000   -0.0339   31.9454
     O     34.88300000     27.09000000     13.09300000   -0.2022  -84.9472
     C     32.06000000     25.25700000     13.36400000   -0.2099  156.2121
     C     31.68400000     26.74900000     13.34200000    0.0376  167.9766
     C     31.15200000     24.42100000     12.47700000    0.0434  167.7457
     H     34.36300000     24.99500000     15.37200000    0.0944   27.2513
     H     36.87800000     25.50100000      8.59000000    0.0105   30.6476
     H     36.41500000     24.94000000     10.23300000    0.0483   29.2244
     H     34.16900000     24.86400000      9.73100000    0.0167   30.4893
     H     34.27900000     26.20100000      8.53600000    0.0222   30.2557
     H     33.39700000     23.08600000     13.69000000    0.1121   26.9460
     H     33.61300000     25.28200000     11.89700000    0.0429   27.7234
     H     31.94400000     24.89900000     14.39800000   -0.0083   30.1765
     H     30.62600000     26.86500000     13.61900000    0.0222   30.4639
     H     32.31300000     27.29600000     14.06000000    0.0466   29.9151
     H     31.84500000     27.15300000     12.33100000    0.0380   30.2741
     H     30.10600000     24.56300000     12.78500000    0.0341   30.1959
     H     31.27200000     24.73600000     11.43000000    0.0333   30.5321
     H     31.42200000     23.35900000     12.57400000    0.0056   30.1281
     H     35.32050000     26.42960000     15.48450000    0.1217   27.6980
     H     35.49140000     22.34750000     13.19500000   -0.0137   23.3933
     H     36.18190000     26.65820000      9.77140000    0.0337   30.2829
     H     34.78330000     24.54580000      8.08130000    0.0172   30.6210
