26
chgs=0 nmr=1 
     N     34.73400000     25.82200000     14.94900000   -0.1231  162.1295
     C     35.59600000     26.71500000     15.73600000    0.1421  144.4776
     C     36.97500000     26.82600000     15.10700000   -0.0606   32.3472
     O     37.57900000     27.92600000     15.15900000   -0.2485  -83.2147
     C     35.23800000     23.38200000     12.92000000    0.1223   40.6655
     O     36.06600000     24.10900000     12.33300000   -0.2584 -100.3357
     N     34.00700000     23.74500000     13.25000000   -0.0933  126.0918
     C     33.53300000     25.09700000     12.97800000    0.0642  133.0957
     C     34.44100000     26.09900000     13.68400000   -0.0063   32.0012
     O     34.88300000     27.09000000     13.09300000   -0.2008 -102.0218
     C     32.06000000     25.25700000     13.36400000   -0.0551  162.0835
     C     31.68400000     26.74900000     13.34200000   -0.0208  176.6952
     N     37.49900000     25.74300000     14.57100000    0.0249  165.6108
     H     34.36300000     24.99500000     15.37200000    0.0952   26.7547
     H     35.14500000     27.71800000     15.76300000    0.0468   27.5153
     H     33.39700000     23.08600000     13.69000000    0.1118   26.9293
     H     33.61300000     25.28200000     11.89700000    0.0393   27.4430
     H     31.94400000     24.89900000     14.39800000   -0.0002   30.3694
     H     30.62600000     26.86500000     13.61900000    0.0304   30.3272
     H     32.31300000     27.29600000     14.06000000    0.0564   30.2469
     H     31.84500000     27.15300000     12.33100000    0.0476   30.1540
     H     36.99800000     24.88000000     14.63700000    0.0936   27.4770
     H     35.68160000     26.34670000     16.76900000    0.0421   28.2650
     H     35.49140000     22.34750000     13.19500000   -0.0124   23.4762
     H     31.40290000     24.65200000     12.72210000    0.0374   29.6808
     H     38.38120000     25.75530000     14.10030000    0.1254   27.4606
