29
chgs=0 nmr=1 
     C     32.77600000     22.51900000     16.57700000    0.1194   42.3992
     O     33.23300000     23.65900000     16.38400000   -0.2575  -97.6716
     N     35.13900000     21.62400000     14.66200000   -0.0965  145.5561
     C     35.59000000     21.94500000     13.30200000   -0.0108  136.1769
     C     35.23800000     23.38200000     12.92000000   -0.0048   28.7815
     O     36.06600000     24.10900000     12.33300000   -0.2328  -63.6208
     C     35.06400000     20.95700000     12.25500000    0.0292  170.0756
     N     34.00700000     23.74500000     13.25000000    0.0082  167.2802
     N     33.54800000     21.52600000     16.95000000   -0.1026  122.6530
     C     35.03100000     21.72200000     17.06900000    0.0430  135.8754
     C     35.61500000     22.19000000     15.75900000    0.0382   28.6288
     O     36.53200000     23.04600000     15.72400000   -0.2360  -93.7475
     O     33.77800000     18.73900000     14.51600000   -0.2534  326.7009
     C     35.66700000     20.38300000     17.44700000   -0.0026  170.0257
     H     34.42500000     20.93200000     14.76600000    0.0880   25.6988
     H     36.68700000     21.87000000     13.28900000    0.0286   27.5044
     H     35.45300000     19.95000000     12.46600000    0.0309   29.9640
     H     33.96400000     20.93800000     12.28200000    0.0099   30.4170
     H     33.39700000     23.08600000     13.69000000    0.0976   27.3599
     H     33.14600000     20.63400000     17.15600000    0.0971   27.2581
     H     35.24600000     22.46200000     17.85400000    0.0459   27.1985
     H     34.49400000     18.25400000     14.90900000    0.1653   31.1868
     H     35.07400000     19.98200000     18.28200000    0.0276   30.5253
     H     35.55700000     19.72700000     16.57100000   -0.0156   30.4403
     H     31.70620000     22.29040000     16.46200000   -0.0143   23.3565
     H     35.40590000     21.28740000     11.26310000    0.0487   29.7666
     H     33.68200000     24.67210000     13.06350000    0.1189   27.7494
     H     32.92470000     18.37670000     14.83380000    0.1677   30.2413
     H     36.72140000     20.31800000     17.75370000    0.0627   29.5953
