31
chgs=0 nmr=1 
     N     24.24000000     19.23300000     12.24600000   -0.1390  135.5143
     C     22.92400000     18.58300000     12.02500000    0.0635  130.3383
     C     22.22900000     18.24400000     13.32500000    0.0339   26.8805
     O     20.96300000     18.25300000     13.39500000   -0.2827  -52.5510
     C     23.05900000     17.32600000     11.15400000    0.1562  126.9891
     O     23.91400000     16.39500000     11.75500000   -0.2791  317.7055
     N     22.99700000     17.97800000     14.36600000   -0.0857  144.0377
     C     22.41800000     17.63800000     15.69300000    0.1607  142.4030
     C     21.46000000     18.73700000     16.16300000   -0.0508   38.1830
     O     20.49700000     18.50600000     16.90000000   -0.2364  -46.2679
     N     21.84600000     19.95400000     15.90500000   -0.1106  149.9307
     C     21.07900000     21.14900000     16.25100000    0.1524  148.8955
     C     20.14200000     21.59000000     15.14900000   -0.0648   31.4242
     O     19.49900000     22.64500000     15.32100000   -0.2772  -49.3861
     N     19.99300000     20.88400000     14.04900000    0.0212  157.6871
     C     24.24100000     20.43600000     12.85700000    0.1357   44.4705
     O     23.26400000     20.95100000     13.32900000   -0.2254  -73.7321
     H     25.09100000     18.79700000     11.95400000    0.1239   26.0519
     H     22.28300000     19.29200000     11.48000000    0.0460   27.3616
     H     22.06600000     16.87100000     11.02100000    0.0368   26.9720
     H     23.46700000     17.60900000     10.17200000    0.0206   27.3049
     H     23.98400000     15.62600000     11.20200000    0.1666   31.9608
     H     23.99100000     18.00600000     14.25900000    0.1086   25.6202
     H     21.81600000     16.72700000     15.56300000    0.0478   27.5482
     H     22.72300000     20.07900000     15.44100000    0.1028   26.7896
     H     20.48400000     20.94600000     17.15300000    0.0619   26.8526
     H     20.50600000     20.03400000     13.92400000    0.1069   25.0693
     H     23.17780000     17.41440000     16.45640000    0.0561   28.0002
     H     21.80210000     21.94330000     16.48820000    0.0403   28.4078
     H     19.36490000     21.20080000     13.33830000    0.1118   27.3441
     H     25.21610000     20.92100000     13.01190000   -0.0020   23.2523
