29
chgs=0 nmr=1 
     O     31.44000000     34.51300000      4.48700000   -0.3013  268.4209
     C     29.42000000     35.75600000      5.11900000    0.0587  169.6574
     C     26.88200000     31.42800000      7.86200000    0.1252   46.4311
     O     27.90600000     31.71100000      7.26400000   -0.2634   -7.5195
     N     30.88400000     31.48500000      6.66600000    0.0365  155.5272
     C     30.95500000     35.21100000      8.45900000    0.1405   41.5476
     O     30.02500000     34.61800000      9.04000000   -0.3000  -60.3566
     N     26.21400000     32.09700000      8.77100000   -0.1371  145.8070
     C     26.77200000     33.43600000      9.19700000    0.0303  162.2608
     N     31.24400000     34.98600000      7.19700000   -0.0702  129.1597
     C     30.50500000     33.88400000      6.51200000   -0.0877  131.6107
     C     31.40900000     32.68000000      6.44600000    0.0511   22.2584
     O     32.61900000     32.81200000      6.12500000   -0.2888  -42.7698
     C     30.09100000     34.39300000      5.07800000    0.0914  116.9577
     H     32.04400000     33.95000000      4.95800000    0.1309   26.8024
     H     29.15200000     36.06400000      4.09800000    0.0385   29.9281
     H     28.51000000     35.69800000      5.73500000    0.0225   30.5148
     H     30.11200000     36.49200000      5.55400000    0.0102   30.1378
     H     29.90500000     31.41600000      6.85800000    0.1076   24.7339
     H     25.36900000     31.73600000      9.16600000    0.1295   27.0675
     H     27.66100000     33.67200000      8.59400000    0.0941   25.9868
     H     31.93100000     35.53000000      6.71500000    0.1201   25.6428
     H     29.59500000     33.63500000      7.07700000    0.0495   25.2133
     H     29.47000000     33.64700000      4.56000000    0.0162   27.2875
     H     26.42530000     30.46100000      7.60440000   -0.0204   23.7678
     H     31.43200000     30.64880000      6.64730000    0.1185   27.0528
     H     31.51460000     35.99950000      8.98350000   -0.0067   23.3807
     H     27.04930000     33.38190000     10.26010000    0.0605   28.8318
     H     25.99930000     34.19790000      9.01690000    0.0440   29.1456
