9
chgs=0 nmr=1 
     N     35.04000000     30.25200000     26.73000000   -0.0452  208.4696
     C     34.33800000     29.10300000     26.65000000   -0.2103   51.8869
     N     34.11000000     28.43700000     27.76800000   -0.0090  205.7066
     N     34.01400000     28.65700000     25.45700000   -0.1966  117.1771
     H     35.16400000     30.85000000     25.93800000    0.1203   28.6423
     H     33.66800000     27.54100000     27.73500000    0.1120   29.1447
     H     34.38000000     28.82900000     28.64700000    0.0890   28.8584
     H     33.57700000     27.75900000     25.49900000    0.0489   28.0657
     H     35.42930000     30.47320000     27.62420000    0.0908   29.6674
