23
chgs=0 nmr=1 
     N     23.88000000     26.72700000     23.85100000   -0.0672  126.6650
     C     25.34900000     26.87200000     23.64300000    0.0224  133.4039
     C     25.74300000     25.58600000     22.92200000   -0.0133   26.0040
     O     25.32500000     24.48900000     23.37800000   -0.2570  -44.9754
     C     26.07000000     27.02500000     24.96000000   -0.0025  155.5338
     C     27.55300000     27.35600000     24.69500000   -0.0184  151.2112
     C     28.26200000     27.57600000     26.02000000   -0.0257   34.0027
     O     29.18900000     26.84000000     26.33500000   -0.2023  -66.9304
     N     27.77700000     28.58500000     26.73900000   -0.0226  172.0438
     C     23.04600000     27.08700000     22.91300000    0.1215   47.2139
     O     23.38300000     27.62700000     21.87000000   -0.2751  -56.0452
     N     26.46500000     25.68900000     21.83300000    0.0417  162.3697
     H     23.53200000     26.35300000     24.71100000    0.1194   26.7545
     H     25.55800000     27.73800000     22.99800000    0.0092   27.2333
     H     25.61000000     27.84000000     25.53800000    0.0098   30.0377
     H     25.99900000     26.08600000     25.52900000    0.0424   29.1466
     H     28.02600000     26.52000000     24.15900000    0.0362   29.4666
     H     27.62300000     28.26900000     24.08500000    0.0238   29.4505
     H     28.17600000     28.80100000     27.63000000    0.1205   27.8213
     H     27.01300000     29.12700000     26.38800000    0.1114   27.2337
     H     26.78200000     26.59400000     21.54900000    0.1155   27.1844
     H     21.97730000     26.87910000     23.07020000   -0.0148   23.5142
     H     26.71010000     24.89590000     21.27550000    0.1251   27.1894
