26
chgs=0 nmr=1 
     N     24.79000000     32.02100000     13.61800000   -0.0773  135.0853
     C     25.14900000     31.60900000     14.98000000    0.0988  145.9122
     C     25.69800000     32.87600000     15.66900000   -0.0759   32.4450
     O     26.15800000     33.73000000     14.89400000   -0.2502  -44.6968
     C     22.50400000     31.22800000     10.13600000    0.1131   47.2817
     O     23.57900000     31.32100000      9.55400000   -0.2771  -47.8501
     N     25.62100000     32.94500000     16.95000000    0.0513  174.6746
     N     22.24100000     31.87300000     11.24100000   -0.0689  133.7544
     C     23.21200000     32.76200000     11.89100000    0.0403  132.6034
     C     23.50900000     32.22400000     13.29000000    0.0320   25.5632
     O     22.54400000     31.94200000     14.03400000   -0.2768  -23.7382
     C     22.69900000     34.26700000     11.98500000   -0.0186  154.9066
     C     23.72700000     35.13100000     12.72200000   -0.0352  176.0600
     H     25.50600000     32.15100000     12.93200000    0.1257   25.8419
     H     24.28500000     31.20800000     15.53000000    0.0423   26.8873
     H     25.18900000     32.20800000     17.47000000    0.1202   27.2438
     H     21.34100000     31.75600000     11.66200000    0.1165   26.8676
     H     24.14700000     32.76300000     11.31200000    0.0132   26.7571
     H     21.74500000     34.28200000     12.53300000    0.0226   29.6190
     H     23.36200000     36.16700000     12.78000000    0.0273   30.3446
     H     23.87600000     34.73700000     13.73800000    0.0548   30.3692
     H     24.68200000     35.10900000     12.17700000    0.0290   30.3834
     H     25.97710000     30.88500000     14.97070000    0.0531   28.4942
     H     21.73270000     30.53490000      9.76920000   -0.0170   23.5561
     H     25.99730000     33.74220000     17.42210000    0.1250   27.4034
     H     22.54660000     34.58290000     10.94240000    0.0320   29.7669
