42
chgs=0 nmr=1 
     N     41.18900000     32.08500000     19.03100000   -0.3008  116.7855
     C     41.46100000     30.75100000     19.59400000    0.1773  142.8534
     C     42.19500000     31.14200000     20.91300000   -0.0872  159.6439
     C     42.90400000     32.41400000     20.55300000   -0.0421  162.6206
     C     41.82200000     33.18800000     19.81300000    0.1245  135.7939
     C     40.26900000     30.50800000     14.11500000    0.0524  149.7862
     C     41.09200000     30.80800000     12.85100000   -0.0836   26.7088
     O     41.82800000     31.80800000     12.68100000   -0.2644  -54.1761
     C     40.99600000     29.39900000     14.86500000   -0.0530  158.4994
     C     42.44500000     29.84800000     15.18200000   -0.0190  152.5915
     C     43.09000000     28.82800000     16.09500000   -0.0378   29.6140
     O     42.77000000     27.65500000     15.90600000   -0.2410  -54.8648
     N     43.89800000     29.25200000     17.05000000    0.0004  171.2280
     C     41.94900000     34.07600000     15.84200000    0.1690   33.7684
     O     42.82900000     34.00000000     16.73900000   -0.3062  -80.2808
     N     40.64200000     33.91600000     16.11200000   -0.1247  136.7636
     C     40.44900000     32.27800000     17.94500000    0.0721   33.0090
     O     39.93600000     31.33600000     17.31500000   -0.2643  -46.2472
     C     40.22600000     33.71600000     17.50900000    0.1214  146.6801
     N     41.00100000     29.87800000     11.93100000    0.0139  167.7009
     H     42.11200000     30.14800000     18.94400000    0.0221   27.9516
     H     41.47600000     31.30900000     21.72900000    0.0292   29.7084
     H     42.91200000     30.36200000     21.21000000    0.0246   29.4378
     H     43.23600000     32.95400000     21.45200000    0.0257   29.5795
     H     43.76900000     32.21800000     19.90300000    0.0337   29.7919
     H     41.10900000     33.65500000     20.50800000    0.0261   28.3133
     H     42.25100000     33.95800000     19.15500000    0.0655   26.0709
     H     40.23000000     31.41000000     14.74400000    0.0021   29.1969
     H     40.46600000     29.18400000     15.80400000    0.0411   29.1771
     H     41.02200000     28.49200000     14.24300000    0.0159   29.6242
     H     43.02100000     29.92200000     14.24800000    0.0599   29.1755
     H     42.42600000     30.82900000     15.68000000    0.0183   30.1082
     H     44.30200000     28.59800000     17.69000000    0.1119   27.7705
     H     44.10600000     30.22700000     17.13300000    0.1222   27.2654
     H     39.96500000     33.93300000     15.37700000    0.1330   26.0574
     H     40.79400000     34.38800000     18.16900000    0.0272   26.4394
     H     40.44300000     29.06500000     12.10000000    0.1074   27.1578
     H     40.52370000     30.22540000     19.82890000    0.0374   27.9056
     H     39.25060000     30.21550000     13.81960000    0.0159   29.2244
     H     42.24370000     34.21960000     14.79200000    0.0260   22.9810
     H     39.16150000     33.98680000     17.56870000    0.0367   28.5124
     H     41.48510000     29.97520000     11.06140000    0.1111   27.5731
