34
chgs=0 nmr=1 
     C     21.07900000     21.14900000     16.25100000    0.0244  161.6171
     C     20.14200000     21.59000000     15.14900000   -0.0117   27.7473
     O     19.49900000     22.64500000     15.32100000   -0.2524  -76.0015
     C     22.08500000     22.25400000     16.58100000   -0.0620  173.5739
     N     20.71700000     22.96400000     12.26000000   -0.1223  146.7343
     C     21.18400000     24.26300000     11.69000000    0.2085  138.2733
     C     22.65000000     24.51600000     12.17200000   -0.2257  146.8128
     C     22.66200000     24.81900000     13.69900000   -0.0328  158.2502
     C     23.37600000     25.64500000     11.40900000    0.0111  171.8032
     C     24.12300000     24.98100000     14.19500000   -0.0298  173.6983
     N     19.99300000     20.88400000     14.04900000   -0.1114  152.9038
     C     19.06500000     21.35200000     12.99900000    0.1705  143.6945
     C     19.44200000     22.74500000     12.51000000   -0.0108   34.6820
     O     18.57100000     23.61000000     12.28900000   -0.2506  -77.4390
     H     20.48400000     20.94600000     17.15300000    0.0486   29.2874
     H     22.74300000     22.39600000     15.71100000    0.0286   30.5086
     H     21.52900000     23.18300000     16.77600000    0.0596   29.4226
     H     21.38500000     22.24600000     12.45600000    0.0917   27.6756
     H     20.53700000     25.08800000     12.02200000    0.0446   27.6338
     H     23.21600000     23.58600000     12.01300000   -0.0030   30.4441
     H     22.10700000     25.74900000     13.89000000    0.0231   30.6102
     H     22.18400000     23.98900000     14.23900000    0.0230   29.4498
     H     24.39600000     25.75900000     11.80600000    0.0304   29.4330
     H     23.42500000     25.39200000     10.34000000    0.0210   30.4088
     H     22.82500000     26.58800000     11.53800000    0.0281   30.8823
     H     24.12300000     25.19500000     15.27400000    0.0291   30.2447
     H     24.68000000     24.05100000     14.00600000    0.0174   30.9999
     H     24.60300000     25.81200000     13.65700000    0.0296   29.7939
     H     20.50600000     20.03400000     13.92400000    0.1102   26.5405
     H     19.16200000     20.67100000     12.14100000    0.0283   28.3988
     H     21.65630000     20.24960000     15.99060000   -0.0100   29.6766
     H     22.71140000     22.03330000     17.45790000    0.0277   30.2888
     H     21.13070000     24.15350000     10.59680000    0.0209   28.4435
     H     18.01610000     21.30240000     13.32660000    0.0463   27.7235
