20
chgs=0 nmr=1 
     C     34.17400000     22.12900000     21.35400000    0.1545  -10.3397
     O     33.54400000     23.08600000     20.88300000   -0.1978 -439.5648
     C     35.71500000     26.20300000     17.17200000   -0.0263  169.6975
     C     34.34300000     26.44500000     17.89800000   -0.0603  162.4084
     C     34.50900000     26.07700000     19.36000000   -0.0641  149.2248
     C     33.20600000     26.31100000     20.12200000    0.0862  141.5314
     N     33.45500000     25.91000000     21.54600000   -0.2203  231.8583
     H     35.94800000     25.12800000     17.16500000    0.0200   30.5237
     H     36.51400000     26.74800000     17.69600000    0.0218   30.5219
     H     34.05700000     27.50400000     17.81100000    0.0130   30.1896
     H     33.56400000     25.81600000     17.44200000    0.0137   30.0413
     H     34.78800000     25.01600000     19.43700000    0.0011   30.0320
     H     35.30300000     26.69700000     19.80200000    0.0121   29.8571
     H     32.92400000     27.37300000     20.07200000    0.0026   28.9416
     H     32.40100000     25.69700000     19.69200000   -0.0094   27.9598
     H     32.62200000     26.04800000     22.08200000    0.0738   31.9969
     H     33.71700000     24.94500000     21.58000000    0.0679   29.8127
     H     33.78490000     21.10330000     21.27270000    0.0459   21.2621
     H     35.12210000     22.29880000     21.88520000    0.0467   21.2827
     H     35.62940000     26.57130000     16.13900000    0.0190   30.1303
