33
chgs=0 nmr=1 
     C     34.73800000     30.87500000     21.47300000   -0.0001  160.4352
     C     33.58900000     30.18900000     22.18100000    0.0052   33.3441
     O     33.58000000     29.00900000     22.49900000   -0.2622  -10.1273
     C     34.87600000     30.23700000     20.06600000   -0.0499  172.0836
     N     29.69400000     29.43600000     21.05400000    0.0043  162.6931
     N     32.76300000     35.83100000     23.09000000   -0.0191  161.8781
     C     32.55500000     32.78300000     18.87000000   -0.1959  193.3005
     N     32.47800000     30.91700000     22.26900000   -0.1285  116.4217
     C     31.20000000     30.32900000     22.78000000    0.0487  140.5502
     C     30.21000000     30.50900000     21.65000000    0.0159   14.2494
     O     29.97800000     31.72600000     21.26900000   -0.2983  -79.0401
     C     30.84700000     30.93100000     24.11800000    0.0211  173.1329
     C     31.90100000     34.91000000     22.72800000    0.1061   39.8406
     O     32.19000000     33.69600000     22.63500000   -0.2660  -66.9835
     H     34.44500000     31.92400000     21.31900000   -0.0033   29.4753
     H     35.08000000     29.16300000     20.18800000    0.0372   29.9249
     H     33.92600000     30.37100000     19.52700000    0.0310   30.4254
     H     29.93800000     28.52400000     21.38400000    0.1204   26.7033
     H     32.48200000     36.79100000     23.10200000    0.1237   27.2113
     H     33.56400000     32.69700000     19.30000000    0.0367   31.2847
     H     31.80600000     32.56000000     19.64400000    0.0760   30.2760
     H     32.44800000     32.06900000     18.04000000    0.0359   31.3407
     H     32.49800000     31.87600000     21.98800000    0.1392   23.6851
     H     31.35500000     29.25000000     22.92500000    0.0041   26.6433
     H     31.49100000     30.45600000     24.87200000    0.0300   30.3288
     H     31.07600000     32.00600000     24.06500000    0.0385   29.3646
     H     35.70020000     30.86360000     22.00590000    0.0282   29.5723
     H     35.68390000     30.68000000     19.46510000    0.0233   30.4981
     H     29.06640000     29.52830000     20.28090000    0.1196   27.3082
     H     33.69650000     35.58850000     23.35410000    0.1250   27.0307
     H     32.40160000     33.80600000     18.49590000    0.0248   31.3927
     H     29.80790000     30.83320000     24.46560000    0.0155   30.5146
     H     30.88240000     35.23880000     22.47440000    0.0131   23.2033
