23
chgs=0 nmr=1 
     C     34.73800000     30.87500000     21.47300000    0.0136  139.7025
     C     33.58900000     30.18900000     22.18100000    0.0330   32.3680
     O     33.58000000     29.00900000     22.49900000   -0.2190  -32.6153
     C     34.87600000     30.23700000     20.06600000   -0.0365  153.9127
     C     36.01200000     30.86000000     19.22100000    0.0343  158.4589
     C     36.08300000     30.19400000     17.87500000   -0.0493   31.3320
     O     35.04800000     29.70200000     17.39300000   -0.2476  -69.9748
     N     37.22800000     30.12600000     17.23300000    0.0210  168.8406
     N     32.47800000     30.91700000     22.26900000   -0.0146  162.2599
     C     36.33400000     31.74200000     23.08700000    0.1187   45.4591
     O     35.57400000     32.61800000     23.48300000   -0.2696  -72.5749
     N     36.00000000     30.86000000     22.17200000   -0.0637  140.5263
     H     34.44500000     31.92400000     21.31900000   -0.0017   27.6889
     H     35.08000000     29.16300000     20.18800000    0.0373   29.5750
     H     33.92600000     30.37100000     19.52700000    0.0456   28.9062
     H     35.81700000     31.93400000     19.08500000    0.0459   29.4026
     H     36.97000000     30.72500000     19.74400000   -0.0114   29.6128
     H     37.27600000     29.67300000     16.34300000    0.1220   27.3594
     H     38.05100000     30.52700000     17.63500000    0.1067   27.4031
     H     32.49800000     31.87600000     21.98800000    0.1120   27.0865
     H     36.65600000     30.13900000     21.94800000    0.1174   27.6108
     H     31.62410000     30.52410000     22.61040000    0.1193   27.6526
     H     37.33660000     31.66700000     23.53330000   -0.0136   23.3716
