14
chgs=0 nmr=1 
     C     38.14600000     33.93200000     19.02700000   -0.0431  175.2943
     C     36.95800000     35.74600000     16.68000000   -0.0559  173.1067
     C     38.69300000     34.10600000     17.59500000   -0.0638  160.7779
     C     38.47100000     35.54600000     17.04500000   -0.0579  160.9389
     H     37.08200000     34.21100000     19.05000000    0.0240   29.9970
     H     38.25700000     32.88200000     19.33700000    0.0270   30.2634
     H     38.70900000     34.57900000     19.71600000    0.0255   30.6761
     H     36.80500000     36.76400000     16.29200000    0.0266   30.2418
     H     36.66600000     35.01400000     15.91300000    0.0267   30.7695
     H     36.34200000     35.60000000     17.57900000    0.0276   29.9397
     H     38.14400000     33.41300000     16.94100000    0.0116   30.3362
     H     38.76200000     36.27900000     17.81200000    0.0174   30.2991
     H     39.08700000     35.69300000     16.14500000    0.0184   29.7123
     H     39.75750000     33.83520000     17.53530000    0.0158   29.7037
