21
chgs=0 nmr=1 
     N     27.34000000     24.43000000      2.61400000   -0.1427  219.9287
     C     26.26600000     25.41300000      2.84200000   -0.0471  133.4907
     C     26.91300000     26.63900000      3.53100000   -0.0970   33.3046
     O     27.88600000     26.46300000      4.26300000   -0.2095  -45.5027
     C     25.11200000     24.88000000      3.64900000    0.0560  158.1194
     C     25.35300000     24.86000000      5.13400000   -0.0975  150.6154
     S     23.93000000     23.95900000      5.90400000   -0.1318  577.7685
     C     24.44700000     23.98400000      7.62000000   -0.1093  170.7731
     N     26.33500000     27.77000000      3.25800000    0.0458  174.0831
     H     26.96100000     23.61900000      2.16800000    0.0787   31.9707
     H     28.04300000     24.83400000      2.02900000    0.0875   31.7190
     H     25.88000000     25.74300000      1.86700000   -0.0156   27.8807
     H     24.23300000     25.51000000      3.45100000    0.0095   29.8046
     H     24.90700000     23.85100000      3.31900000    0.0235   30.0346
     H     26.29500000     24.33800000      5.35600000    0.0697   28.4384
     H     25.40300000     25.88800000      5.52200000    0.0590   29.3888
     H     23.69300000     23.47500000      8.23800000    0.0670   29.6946
     H     25.41300000     23.46700000      7.71900000    0.0671   29.1689
     H     24.55300000     25.02600000      7.95600000    0.0620   29.2970
     H     25.55800000     27.80400000      2.63000000    0.1107   27.2445
     H     26.67910000     28.60590000      3.68560000    0.1140   27.6223
