9
chgs=0 nmr=1 
     N     27.87500000     31.31700000     26.44300000   -0.0328  214.1609
     C     27.13200000     32.42300000     26.57400000   -0.1763   48.9095
     N     27.63000000     33.65600000     26.46100000   -0.2180  102.6980
     N     25.81000000     32.29900000     26.73200000   -0.0334  200.9386
     H     27.44700000     30.43800000     26.65100000    0.0973   29.6549
     H     26.91600000     34.35400000     26.51200000    0.0498   27.6114
     H     25.23100000     33.11400000     26.76200000    0.1105   28.9252
     H     25.40000000     31.39100000     26.82000000    0.0814   28.9851
     H     28.83130000     31.31490000     26.15050000    0.1216   28.7621
