24
chgs=0 nmr=1 
     N     31.11300000     20.86300000     15.86000000   -0.1296  156.1976
     C     31.28800000     22.20100000     16.41700000    0.1411  146.0244
     C     32.77600000     22.51900000     16.57700000   -0.0638   34.1620
     O     33.23300000     23.65900000     16.38400000   -0.2274  -78.5128
     C     30.49100000     19.16200000     12.04000000    0.1329   41.0484
     O     29.36700000     19.52300000     12.44100000   -0.2872  -78.7100
     N     31.51000000     18.93600000     12.85200000   -0.0596  138.0020
     C     31.39800000     19.06400000     14.28600000   -0.0151  133.2422
     C     31.59300000     20.55300000     14.65500000    0.0590   32.5138
     O     32.15900000     21.31100000     13.86100000   -0.2043  -83.2781
     C     32.49200000     18.19300000     14.99500000    0.1640  118.3547
     O     33.77800000     18.73900000     14.51600000   -0.2861  302.4047
     N     33.54800000     21.52600000     16.95000000    0.0106  171.9315
     H     30.62600000     20.16900000     16.39000000    0.1135   26.6308
     H     30.85300000     22.93800000     15.72600000    0.0574   27.4563
     H     32.38900000     18.66700000     12.45900000    0.1182   26.1640
     H     30.40500000     18.73500000     14.62700000    0.0334   27.2501
     H     32.40300000     18.31600000     16.08500000   -0.0009   27.3629
     H     34.49400000     18.25400000     14.90900000    0.1565   31.9292
     H     33.14600000     20.63400000     17.15600000    0.0880   27.0611
     H     30.74430000     22.27110000     17.37060000    0.0462   28.2738
     H     30.71360000     19.10430000     10.96430000   -0.0082   23.2599
     H     32.39220000     17.12890000     14.73480000    0.0397   27.3120
     H     34.53630000     21.65660000     17.02930000    0.1216   27.6397
