40
chgs=0 nmr=1 
     N     29.59900000     18.59900000      9.82800000   -0.0116  166.8195
     N     24.24000000     19.23300000     12.24600000   -0.0382  165.1162
     C     28.37500000     17.99900000     16.88700000    0.1192   41.6249
     O     29.32600000     18.78600000     16.69000000   -0.3015  -60.1398
     N     27.51000000     17.68900000     15.95400000   -0.0605  140.0285
     C     27.57400000     18.19200000     14.56300000    0.0472  129.5105
     C     26.48200000     19.28000000     14.43200000    0.0395   34.3907
     O     25.60900000     19.38800000     15.28700000   -0.2107  -62.1937
     C     27.29900000     17.05500000     13.53300000    0.0040  113.8524
     O     25.92500000     16.61100000     13.91300000   -0.2843  263.1290
     C     28.23600000     15.86400000     13.55800000    0.0542  167.1010
     C     26.54100000     18.73200000      9.25100000    0.1362   40.9506
     O     26.33300000     18.53600000     10.45700000   -0.2603  -60.5513
     N     26.58500000     20.06300000     13.37800000   -0.1134  155.5724
     C     25.59400000     21.10900000     13.07200000    0.1584  143.6651
     C     24.24100000     20.43600000     12.85700000   -0.0704   38.4458
     O     23.26400000     20.95100000     13.32900000   -0.1916  -64.0135
     N     27.36100000     17.95900000      8.55900000   -0.1512  136.5451
     C     28.05400000     16.83500000      9.21000000    0.1236  146.5749
     C     29.25800000     17.31800000      9.98400000   -0.0353   32.9569
     O     29.93000000     16.47700000     10.60600000   -0.2360  -55.2346
     H     29.07000000     19.20900000      9.23800000    0.1069   25.6875
     H     25.09100000     18.79700000     11.95400000    0.1023   24.5499
     H     26.75900000     17.07400000     16.19600000    0.1198   26.1953
     H     28.56000000     18.63600000     14.36100000    0.0305   26.7677
     H     27.28300000     17.48700000     12.52200000    0.0166   26.4734
     H     25.65000000     15.90600000     13.33900000    0.1454   32.1301
     H     27.93200000     15.14100000     12.78700000    0.0177   30.4011
     H     29.26400000     16.20200000     13.35900000    0.0387   29.9643
     H     28.19300000     15.38400000     14.54700000    0.0193   30.0576
     H     27.36400000     19.94300000     12.76300000    0.0991   27.0301
     H     25.51600000     21.80500000     13.92000000    0.0463   27.6637
     H     27.51100000     18.13900000      7.58700000    0.1319   26.5158
     H     27.36300000     16.33700000      9.90600000    0.0684   26.9971
     H     30.40390000     18.92440000     10.32420000    0.1337   27.3335
     H     23.35340000     18.79510000     12.09710000    0.1073   28.1244
     H     28.18190000     17.59410000     17.89140000   -0.0124   23.2499
     H     26.02170000     19.52920000      8.69890000    0.0191   23.2814
     H     25.94320000     21.66420000     12.18890000    0.0210   28.3460
     H     28.39370000     16.09990000      8.46550000    0.0714   28.0691
