19
chgs=0 nmr=1 
     C     40.26900000     30.50800000     14.11500000    0.0435  150.4515
     C     41.09200000     30.80800000     12.85100000   -0.0739   28.7236
     O     41.82800000     31.80800000     12.68100000   -0.2529  -67.1525
     C     40.99600000     29.39900000     14.86500000   -0.0701  158.5094
     C     42.44500000     29.84800000     15.18200000   -0.0089  151.9000
     C     43.09000000     28.82800000     16.09500000   -0.0422   30.8098
     O     42.77000000     27.65500000     15.90600000   -0.2423  -49.9115
     N     43.89800000     29.25200000     17.05000000    0.0053  169.8345
     N     41.00100000     29.87800000     11.93100000    0.0111  168.6420
     H     40.23000000     31.41000000     14.74400000    0.0230   29.7248
     H     40.46600000     29.18400000     15.80400000    0.0295   29.7757
     H     41.02200000     28.49200000     14.24300000    0.0287   29.3829
     H     43.02100000     29.92200000     14.24800000    0.0690   28.8628
     H     42.42600000     30.82900000     15.68000000    0.0034   29.9010
     H     44.30200000     28.59800000     17.69000000    0.1163   27.7121
     H     44.10600000     30.22700000     17.13300000    0.1142   27.2183
     H     40.44300000     29.06500000     12.10000000    0.1065   27.2134
     H     39.25060000     30.21550000     13.81960000    0.0247   29.0618
     H     41.48510000     29.97520000     11.06140000    0.1153   27.5098
