16
chgs=0 nmr=1 
     C     27.55300000     27.35600000     24.69500000   -0.0525  167.2044
     C     28.26200000     27.57600000     26.02000000   -0.0495   36.6246
     O     29.18900000     26.84000000     26.33500000   -0.2155  -75.8262
     N     27.77700000     28.58500000     26.73900000   -0.0312  157.9673
     C     29.27100000     31.31400000     26.01600000    0.0626  161.4535
     N     27.87500000     31.31700000     26.44300000   -0.2893  259.9921
     H     28.02600000     26.52000000     24.15900000    0.0495   29.7728
     H     27.62300000     28.26900000     24.08500000    0.0454   29.2978
     H     28.17600000     28.80100000     27.63000000    0.1261   27.4815
     H     27.01300000     29.12700000     26.38800000    0.1208   26.3150
     H     29.85100000     30.66900000     26.69200000    0.0211   28.5680
     H     29.66200000     32.34100000     26.06300000    0.0252   28.9146
     H     27.44700000     30.43800000     26.65100000    0.0215   31.1570
     H     26.49540000     27.11990000     24.88400000    0.0442   29.4261
     H     29.37330000     30.93820000     24.98730000    0.0175   28.5143
     H     27.32000000     32.14310000     26.54080000    0.1040   31.9206
