42
chgs=0 nmr=1 
     N     41.18900000     32.08500000     19.03100000   -0.2503  108.7990
     C     41.46100000     30.75100000     19.59400000    0.0315  129.8070
     C     40.16800000     30.02600000     19.91800000    0.1214   30.8754
     O     39.26400000     30.66200000     20.52100000   -0.2875  -40.8860
     C     42.19500000     31.14200000     20.91300000    0.0159  154.9189
     C     42.90400000     32.41400000     20.55300000   -0.0345  162.1302
     C     41.82200000     33.18800000     19.81300000    0.1626  138.9043
     N     40.05900000     28.75800000     19.60700000   -0.2750  122.4884
     C     38.81700000     28.02000000     19.88900000    0.1803  142.3310
     C     39.09000000     26.62900000     19.32500000   -0.0741  162.0990
     C     40.08200000     26.90400000     18.19800000   -0.0502  158.9099
     C     41.03500000     27.90900000     18.87900000    0.1290  137.2446
     C     40.99600000     29.39900000     14.86500000   -0.0345  173.2317
     C     42.44500000     29.84800000     15.18200000   -0.0349  159.4926
     C     43.09000000     28.82800000     16.09500000   -0.0537   27.7740
     O     42.77000000     27.65500000     15.90600000   -0.2380  -56.7381
     N     43.89800000     29.25200000     17.05000000   -0.0017  168.2813
     C     40.44900000     32.27800000     17.94500000    0.1732   39.5258
     O     39.93600000     31.33600000     17.31500000   -0.2749  -86.2265
     H     42.11200000     30.14800000     18.94400000   -0.0275   26.9453
     H     41.47600000     31.30900000     21.72900000    0.0347   29.3335
     H     42.91200000     30.36200000     21.21000000    0.0173   29.4906
     H     43.23600000     32.95400000     21.45200000    0.0293   29.4911
     H     43.76900000     32.21800000     19.90300000    0.0120   30.0120
     H     41.10900000     33.65500000     20.50800000    0.0424   27.9186
     H     42.25100000     33.95800000     19.15500000    0.0260   27.8395
     H     38.00200000     28.46900000     19.30300000    0.0334   28.0143
     H     39.53200000     25.97200000     20.08900000    0.0217   29.8038
     H     38.16800000     26.17200000     18.93700000    0.0277   29.4527
     H     40.61100000     25.98900000     17.89400000    0.0332   29.3806
     H     39.58500000     27.34800000     17.32300000    0.0525   29.4148
     H     41.73000000     27.40700000     19.56800000    0.0181   28.5479
     H     41.60700000     28.49000000     18.14100000    0.0689   27.1166
     H     40.46600000     29.18400000     15.80400000    0.0521   29.9535
     H     41.02200000     28.49200000     14.24300000    0.0361   29.7786
     H     43.02100000     29.92200000     14.24800000    0.0437   29.3792
     H     42.42600000     30.82900000     15.68000000    0.0018   29.8809
     H     44.30200000     28.59800000     17.69000000    0.1139   27.6886
     H     44.10600000     30.22700000     17.13300000    0.1195   27.1163
     H     38.52760000     28.04050000     20.95010000    0.0326   27.9876
     H     40.47110000     30.19970000     14.32350000    0.0186   30.5012
     H     40.28750000     33.31930000     17.62930000   -0.0127   23.1606
