12
chgs=0 nmr=1 
     C     18.59900000     24.73600000      7.72700000   -0.0680  171.3706
     C     17.81900000     23.43400000      7.90000000   -0.0140  163.2356
     C     16.50900000     23.52900000      7.11600000   -0.0290   30.9050
     O     15.44600000     22.98000000      7.43300000   -0.2308  -75.8433
     N     16.53900000     24.29300000      6.00900000   -0.0379  161.2349
     H     18.12100000     25.48200000      8.37800000    0.0471   30.0114
     H     18.48300000     25.03900000      6.67600000   -0.0022   30.4128
     H     18.41700000     22.59300000      7.51900000    0.0531   29.2933
     H     17.60000000     23.27500000      8.96600000    0.0425   29.4122
     H     15.71200000     24.40900000      5.45900000    0.1178   27.4149
     H     17.38800000     24.74500000      5.73600000    0.0898   25.6418
     H     19.67600000     24.76290000      7.94940000    0.0316   29.9421
