38
chgs=0 nmr=1 
     N     28.52500000     34.44700000     18.18900000    0.0068  159.3845
     N     23.14100000     29.18700000     19.24100000   -0.0402  160.6951
     C     26.17900000     34.12700000     17.65000000    0.1258  148.0388
     C     25.69800000     32.87600000     15.66900000    0.0982   44.6078
     O     26.15800000     33.73000000     14.89400000   -0.3056  -43.6953
     C     28.76200000     29.57300000     19.90600000    0.0039  160.2691
     C     27.33100000     29.31700000     20.36400000   -0.0078   28.6032
     O     27.10100000     28.34600000     21.09700000   -0.2673  -38.0885
     C     29.15100000     28.65500000     18.75500000   -0.0465  176.8650
     N     25.62100000     32.94500000     16.95000000   -0.0936  148.7909
     N     26.43600000     30.23200000     20.00400000   -0.0906  144.8956
     C     27.47500000     33.65100000     18.30400000   -0.0031   26.9477
     O     27.50700000     32.58700000     18.95800000   -0.2525  -15.1088
     C     25.03400000     30.17000000     20.40100000    0.0103  134.3364
     C     24.10100000     30.14900000     19.19600000    0.0771   27.1012
     O     24.19600000     30.94800000     18.28700000   -0.2279    6.1802
     C     24.63900000     31.42600000     21.28600000   -0.0340  155.8085
     C     25.64600000     31.67000000     22.42100000   -0.0123  178.0648
     H     28.44200000     35.28300000     17.64600000    0.1265   26.8714
     H     23.12400000     28.54900000     20.01100000    0.1240   26.8985
     H     26.36900000     34.95900000     16.95600000    0.0290   26.4579
     H     28.81600000     30.60900000     19.54100000    0.0010   28.7133
     H     29.23500000     27.64100000     19.17300000    0.0352   29.9408
     H     28.32300000     28.68600000     18.03100000    0.0199   30.6642
     H     25.18900000     32.20800000     17.47000000    0.1245   22.3543
     H     26.73800000     30.99700000     19.43500000    0.1156   22.9780
     H     24.85900000     29.26400000     21.00000000    0.0065   27.1134
     H     24.67100000     32.30400000     20.62400000    0.0136   29.7263
     H     26.63000000     31.89000000     21.98200000    0.0355   29.9635
     H     25.30900000     32.53200000     23.01600000    0.0239   30.5325
     H     29.39950000     34.24000000     18.62760000    0.1285   27.2347
     H     22.45120000     29.10210000     18.52200000    0.1210   27.6826
     H     25.49380000     34.43800000     18.45240000    0.0587   28.3660
     H     25.30670000     31.97290000     15.17790000   -0.0142   23.2000
     H     29.45240000     29.47150000     20.75640000    0.0300   29.5631
     H     30.07520000     28.84280000     18.18880000    0.0266   30.4787
     H     23.60990000     31.34340000     21.66570000    0.0161   29.8323
     H     25.73940000     30.79640000     23.08290000    0.0373   30.5830
