29
chgs=0 nmr=1 
     C     34.73800000     30.87500000     21.47300000   -0.0002  138.6887
     C     33.58900000     30.18900000     22.18100000    0.0285   31.7884
     O     33.58000000     29.00900000     22.49900000   -0.2196  -33.9532
     C     34.87600000     30.23700000     20.06600000   -0.0671  159.0242
     C     36.01200000     30.86000000     19.22100000   -0.0079  175.8364
     C     32.55500000     32.78300000     18.87000000   -0.1872  191.9339
     C     36.33400000     31.74200000     23.08700000    0.1249   44.6890
     O     35.57400000     32.61800000     23.48300000   -0.2680  -67.9065
     N     32.47800000     30.91700000     22.26900000   -0.0175  162.3199
     C     35.00300000     35.08400000     20.92000000   -0.1868  192.3175
     N     36.00000000     30.86000000     22.17200000   -0.0633  142.6584
     H     34.44500000     31.92400000     21.31900000    0.0034   27.3580
     H     35.08000000     29.16300000     20.18800000    0.0336   29.5712
     H     33.92600000     30.37100000     19.52700000    0.0321   29.5906
     H     35.81700000     31.93400000     19.08500000    0.0337   30.4063
     H     36.97000000     30.72500000     19.74400000    0.0108   30.3337
     H     33.56400000     32.69700000     19.30000000    0.0573   30.8491
     H     31.80600000     32.56000000     19.64400000    0.0331   31.0350
     H     32.44800000     32.06900000     18.04000000    0.0520   30.8771
     H     32.49800000     31.87600000     21.98800000    0.1146   26.9933
     H     35.56200000     34.65300000     20.07600000    0.0365   31.2613
     H     34.62000000     34.27400000     21.55700000    0.0614   30.4434
     H     34.16100000     35.67900000     20.53700000    0.0329   31.1575
     H     36.65600000     30.13900000     21.94800000    0.1191   27.5076
     H     36.06390000     30.37270000     18.23620000    0.0387   30.2554
     H     32.40160000     33.80600000     18.49590000    0.0492   30.8376
     H     37.33660000     31.66700000     23.53330000   -0.0097   23.3039
     H     31.62410000     30.52410000     22.61040000    0.1180   27.6597
     H     35.66950000     35.73030000     21.51000000    0.0476   30.9736
