32
chgs=0 nmr=1 
     C     25.77800000     30.43600000     23.35600000   -0.0724  174.9642
     N     29.69400000     29.43600000     21.05400000   -0.0887  121.2086
     C     28.76200000     29.57300000     19.90600000    0.0234  140.7030
     C     27.33100000     29.31700000     20.36400000    0.0584   29.0401
     O     27.10100000     28.34600000     21.09700000   -0.2554  -24.1589
     C     29.15100000     28.65500000     18.75500000    0.0076  171.8851
     N     23.14100000     29.18700000     19.24100000   -0.0476  163.9610
     C     30.21000000     30.50900000     21.65000000    0.1444   31.9275
     O     29.97800000     31.72600000     21.26900000   -0.3247 -112.2854
     N     26.43600000     30.23200000     20.00400000   -0.0677  140.2447
     C     25.03400000     30.17000000     20.40100000   -0.0217  138.5633
     C     24.10100000     30.14900000     19.19600000    0.0371   30.4168
     O     24.19600000     30.94800000     18.28700000   -0.2064  -28.1129
     C     24.63900000     31.42600000     21.28600000    0.0131  150.3311
     C     25.64600000     31.67000000     22.42100000   -0.0351  167.4125
     H     26.50600000     30.65400000     24.15100000    0.0262   30.5519
     H     24.80000000     30.21100000     23.80600000    0.0122   31.0374
     H     26.12100000     29.56900000     22.77200000    0.0553   29.4707
     H     29.93800000     28.52400000     21.38400000    0.1225   26.4107
     H     28.81600000     30.60900000     19.54100000    0.0220   26.3685
     H     29.23500000     27.64100000     19.17300000    0.0294   30.1247
     H     28.32300000     28.68600000     18.03100000    0.0339   30.3508
     H     23.12400000     28.54900000     20.01100000    0.1154   27.2674
     H     26.73800000     30.99700000     19.43500000    0.1266   26.5856
     H     24.85900000     29.26400000     21.00000000    0.0217   26.8869
     H     24.67100000     32.30400000     20.62400000    0.0238   29.4109
     H     26.63000000     31.89000000     21.98200000    0.0297   29.8284
     H     25.30900000     32.53200000     23.01600000    0.0214   29.9583
     H     30.07520000     28.84280000     18.18880000    0.0485   30.0241
     H     22.45120000     29.10210000     18.52200000    0.1196   27.8632
     H     30.92970000     30.37810000     22.47150000    0.0115   22.8620
     H     23.60990000     31.34340000     21.66570000    0.0162   29.9099
