14
chgs=0 nmr=1 
     C     28.47600000     25.13500000      7.70500000   -0.1809  192.8737
     C     25.35300000     24.86000000      5.13400000   -0.1507  164.3352
     S     23.93000000     23.95900000      5.90400000   -0.1284  603.5498
     C     24.44700000     23.98400000      7.62000000   -0.1404  169.0585
     H     28.20500000     25.37800000      8.74300000    0.0449   31.0133
     H     28.41300000     26.04300000      7.08700000    0.0449   31.0562
     H     27.78300000     24.37600000      7.31300000    0.0449   30.9012
     H     26.29500000     24.33800000      5.35600000    0.0716   29.3476
     H     25.40300000     25.88800000      5.52200000    0.0678   29.3810
     H     23.69300000     23.47500000      8.23800000    0.0728   29.5902
     H     25.41300000     23.46700000      7.71900000    0.0704   29.2569
     H     24.55300000     25.02600000      7.95600000    0.0645   29.3453
     H     29.50330000     24.74270000      7.67620000    0.0456   30.9536
     H     25.17680000     24.87460000      4.04830000    0.0729   29.5395
