48
chgs=0 nmr=1 
     C     26.82600000     24.52100000     21.01200000   -0.0110  159.1321
     C     27.99400000     23.78100000     21.64300000    0.0163   33.0862
     O     28.90400000     24.44400000     22.09800000   -0.2433  -36.9457
     C     27.04300000     24.99200000     19.57100000   -0.0528  175.6594
     C     31.28800000     22.20100000     16.41700000   -0.0109  165.3356
     C     30.52000000     22.30000000     17.76400000   -0.1511  157.6272
     C     29.00600000     22.04300000     17.44200000   -0.0277  157.4030
     C     30.83200000     23.69900000     18.35800000   -0.0163  168.7276
     C     28.40700000     22.94800000     16.36600000   -0.0511  180.6635
     C     25.05200000     21.28500000     18.77600000    0.0220   69.9098
     C     22.94500000     21.95100000     17.78500000    0.0170   65.6225
     C     24.27200000     21.54400000     17.64400000    0.0032   66.0732
     N     27.94200000     22.44800000     21.64800000   -0.1221  149.1684
     C     22.43700000     22.15700000     19.06500000    0.0061   66.9689
     C     29.94200000     21.10600000     21.24000000   -0.0394   33.9204
     O     29.47000000     20.67700000     20.19000000   -0.2359  -50.3539
     C     23.20400000     21.90700000     20.19200000    0.0122   67.5539
     C     24.51700000     21.47000000     20.03000000   -0.0076   69.0334
     C     29.01500000     21.65700000     22.28800000    0.1371  149.7353
     N     31.23300000     21.09000000     21.45900000    0.0144  169.6367
     H     25.96700000     23.83400000     21.00400000   -0.0047   29.7977
     H     27.96900000     25.58500000     19.54900000    0.0395   30.2398
     H     27.16400000     24.09800000     18.94200000    0.0386   30.5084
     H     30.85300000     22.93800000     15.72600000    0.0167   29.9282
     H     30.88200000     21.52100000     18.45100000    0.0063   28.8753
     H     28.90200000     21.00100000     17.10700000    0.0092   29.7220
     H     28.43100000     22.19000000     18.36800000    0.0231   29.3170
     H     30.30700000     23.81600000     19.31800000    0.0369   30.5519
     H     31.91600000     23.79500000     18.51900000    0.0101   30.7222
     H     30.49400000     24.47800000     17.65800000    0.0160   30.4545
     H     27.34900000     22.68900000     16.21600000    0.0157   30.5039
     H     28.48600000     23.99800000     16.68500000    0.0301   30.5657
     H     28.95600000     22.80900000     15.42300000    0.0229   30.0295
     H     26.07000000     20.94100000     18.66600000    0.0056   23.7731
     H     24.69800000     21.42900000     16.65800000   -0.0047   24.0712
     H     27.17100000     21.98000000     21.21600000    0.1215   25.7620
     H     21.42600000     22.51800000     19.18200000   -0.0128   24.3169
     H     22.79100000     22.04900000     21.18000000   -0.0147   24.2056
     H     29.58400000     22.29400000     22.98200000    0.0255   27.0680
     H     31.54300000     21.39500000     22.36000000    0.1103   27.6102
     H     26.55630000     25.39350000     21.62530000    0.0334   29.6444
     H     26.24290000     25.60510000     19.13060000    0.0338   30.7944
     H     31.15610000     21.19280000     15.99730000    0.0140   30.5220
     H     32.35780000     22.42960000     16.53200000    0.0063   30.6675
     H     22.31860000     22.17170000     16.90810000   -0.0022   23.8427
     H     25.09870000     21.33630000     20.95400000   -0.0108   23.9508
     H     28.53100000     20.84640000     22.85260000    0.0493   28.3071
     H     31.93830000     20.80210000     20.81120000    0.1263   27.2646
