24
chgs=0 nmr=1 
     O     29.58600000     43.57000000     19.48300000   -0.2648  -98.3492
     C     28.97800000     43.96000000     14.67800000    0.1325  147.8204
     C     29.60400000     43.50700000     13.39300000   -0.0578   34.8134
     O     29.21900000     43.98100000     12.30100000   -0.2513  -50.1085
     N     30.56300000     42.62300000     13.49500000    0.0169  171.4367
     N     30.99100000     42.57100000     17.99800000   -0.1709  125.7658
     C     31.42200000     43.94000000     17.55300000    0.0303  133.9397
     C     30.75500000     44.35100000     16.27700000    0.0237   35.6752
     O     31.20700000     45.26800000     15.56600000   -0.2431  -42.4803
     C     32.97900000     43.91800000     17.44500000    0.1731  118.0968
     O     33.17400000     43.06700000     16.26500000   -0.3025  308.8475
     N     29.72100000     43.67300000     15.88500000   -0.0878  153.0650
     C     30.07500000     42.53800000     18.98400000    0.1424   39.2549
     H     27.99600000     43.47100000     14.76400000    0.0503   28.4129
     H     28.84100000     45.05000000     14.61900000    0.0624   27.1815
     H     30.87700000     42.35700000     14.40600000    0.0928   26.5991
     H     31.36100000     41.73700000     17.58800000    0.1208   25.7031
     H     31.15100000     44.66200000     18.33700000    0.0755   25.7465
     H     33.35300000     44.93600000     17.26300000    0.0441   26.6668
     H     34.10300000     42.97400000     16.09100000    0.1563   31.9940
     H     29.42000000     42.90600000     16.45100000    0.1069   25.8666
     H     30.99400000     42.20360000     12.69610000    0.1186   27.6952
     H     33.46820000     43.48580000     18.33040000    0.0282   27.6213
     H     29.73530000     41.55230000     19.33460000    0.0034   23.1128
