38
chgs=0 nmr=1 
     C     23.18100000     31.30900000     21.82400000   -0.0579  174.7914
     N     23.88000000     26.72700000     23.85100000    0.0196  168.3517
     N     23.14100000     29.18700000     19.24100000   -0.1352  129.5356
     C     22.12600000     29.06200000     18.18300000   -0.0080  134.6815
     C     20.83500000     28.62900000     18.90400000    0.0186   27.7853
     O     20.82100000     27.73400000     19.74900000   -0.2576   15.2985
     C     22.49400000     28.05700000     17.10900000    0.0381  170.9919
     N     19.81000000     29.37800000     18.57800000    0.0131  163.0129
     C     20.08300000     28.72900000     23.32100000    0.1176   42.3306
     O     19.99100000     28.58400000     24.56100000   -0.3096  -56.5764
     N     20.80100000     27.93100000     22.57800000   -0.1107  139.8342
     C     21.55000000     26.79600000     23.13300000    0.1335  148.4247
     C     23.04600000     27.08700000     22.91300000   -0.0460   32.3285
     O     23.38300000     27.62700000     21.87000000   -0.2215  -14.8058
     C     25.03400000     30.17000000     20.40100000    0.0383  151.8379
     C     24.10100000     30.14900000     19.19600000   -0.0086   31.5282
     O     24.19600000     30.94800000     18.28700000   -0.2365  -27.0069
     C     24.63900000     31.42600000     21.28600000   -0.0784  161.9849
     H     22.94200000     32.19400000     22.43200000    0.0249   30.5527
     H     22.48200000     31.24600000     20.97700000    0.0260   30.5588
     H     23.09000000     30.40400000     22.44300000    0.0348   30.6923
     H     23.53200000     26.35300000     24.71100000    0.1233   27.0739
     H     23.12400000     28.54900000     20.01100000    0.1246   24.3586
     H     21.95700000     30.04300000     17.71400000    0.0111   27.2022
     H     23.42500000     28.39400000     16.63000000    0.0487   29.8692
     H     22.66300000     27.08400000     17.59400000    0.0343   30.1236
     H     19.96200000     30.14700000     17.95600000    0.1238   26.7514
     H     20.84300000     28.09900000     21.59300000    0.1300   24.5178
     H     21.34400000     26.67500000     24.20700000    0.0292   26.5202
     H     24.85900000     29.26400000     21.00000000    0.0056   28.6500
     H     24.67100000     32.30400000     20.62400000    0.0296   29.6922
     H     24.86540000     26.82430000     23.71150000    0.1252   27.4174
     H     21.73530000     27.92080000     16.32420000    0.0187   30.4159
     H     18.88390000     29.21880000     18.92010000    0.1172   27.5886
     H     19.58350000     29.57980000     22.83460000   -0.0165   23.3793
     H     21.32540000     25.86490000     22.59200000    0.0599   28.2771
     H     26.09140000     30.21680000     20.10160000    0.0245   29.5140
     H     25.35980000     31.60060000     22.09840000    0.0161   30.0406
