36
chgs=0 nmr=1 
     C     22.22900000     18.24400000     13.32500000    0.1491   35.7305
     O     20.96300000     18.25300000     13.39500000   -0.2958  -91.0544
     N     22.99700000     17.97800000     14.36600000   -0.1004  120.5772
     C     22.41800000     17.63800000     15.69300000    0.0239  136.5199
     C     21.46000000     18.73700000     16.16300000    0.0009   33.8774
     O     20.49700000     18.50600000     16.90000000   -0.2319  -42.4503
     C     23.46100000     17.33100000     16.74100000    0.0115  173.3339
     N     21.84600000     19.95400000     15.90500000   -0.0867  145.1918
     C     21.07900000     21.14900000     16.25100000    0.0651  135.1719
     C     20.14200000     21.59000000     15.14900000   -0.0171   29.8070
     O     19.49900000     22.64500000     15.32100000   -0.2617  -43.9862
     C     22.08500000     22.25400000     16.58100000    0.0703  145.0006
     C     22.94500000     21.95100000     17.78500000   -0.0070   54.5654
     C     24.27200000     21.54400000     17.64400000   -0.0199   66.8293
     C     22.43700000     22.15700000     19.06500000    0.0022   66.5203
     C     25.05200000     21.28500000     18.77600000    0.0260   70.7627
     C     23.20400000     21.90700000     20.19200000    0.0179   65.3447
     C     24.51700000     21.47000000     20.03000000    0.0108   69.5789
     N     19.99300000     20.88400000     14.04900000    0.0355  157.3929
     H     23.99100000     18.00600000     14.25900000    0.1189   26.5776
     H     21.81600000     16.72700000     15.56300000    0.0482   27.3711
     H     24.21600000     18.13000000     16.70200000    0.0146   30.7355
     H     22.96200000     17.34600000     17.72100000    0.0658   30.0232
     H     22.72300000     20.07900000     15.44100000    0.0920   27.2489
     H     20.48400000     20.94600000     17.15300000    0.0548   26.8528
     H     22.74300000     22.39600000     15.71100000   -0.0062   29.6154
     H     21.52900000     23.18300000     16.77600000    0.0429   27.4457
     H     24.69800000     21.42900000     16.65800000   -0.0449   24.7849
     H     21.42600000     22.51800000     19.18200000   -0.0160   24.1996
     H     26.07000000     20.94100000     18.66600000   -0.0202   24.5066
     H     22.79100000     22.04900000     21.18000000   -0.0130   24.1933
     H     20.50600000     20.03400000     13.92400000    0.0969   25.3474
     H     22.73440000     18.49050000     12.37960000    0.0119   23.1300
     H     23.98920000     16.37030000     16.65190000    0.0465   30.1114
     H     25.09870000     21.33630000     20.95400000   -0.0056   24.2496
     H     19.36490000     21.20080000     13.33830000    0.1205   27.2415
