32
chgs=0 nmr=1 
     C     31.82700000     27.26200000      2.89400000    0.0319  172.5300
     C     31.02200000     29.28800000      5.66500000    0.1171   47.2866
     N     30.31000000     25.45800000      5.38400000   -0.0660  147.6033
     C     30.28800000     24.24500000      6.19300000    0.0162  131.8708
     C     29.27900000     23.22700000      5.64100000    0.0073   29.1583
     O     28.47800000     23.52200000      4.72500000   -0.2336  -51.6735
     C     29.90300000     24.59000000      7.66500000   -0.1672  150.8269
     C     30.86200000     25.49600000      8.38900000    0.0554  169.1615
     C     28.47600000     25.13500000      7.70500000   -0.0033  171.2861
     O     29.80900000     29.39500000      5.54500000   -0.2692  -45.2277
     N     29.38000000     22.05700000      6.23200000    0.0156  170.9948
     N     31.83400000     28.41200000      5.12500000   -0.0928  125.5655
     C     31.22000000     27.34100000      4.27500000   -0.0092  138.9626
     C     31.44000000     26.07900000      5.08000000    0.0475   29.8165
     O     32.57600000     25.80200000      5.46100000   -0.2553    1.0341
     H     32.92200000     27.30900000      2.98900000    0.0293   30.0510
     H     31.53900000     26.30300000      2.43900000    0.0357   30.2753
     H     29.44600000     25.83300000      5.04800000    0.1299   25.8541
     H     31.28700000     23.78400000      6.19600000    0.0347   27.0755
     H     29.89100000     23.63600000      8.21200000   -0.0088   29.7057
     H     30.49800000     25.67400000      9.41200000    0.0236   30.5074
     H     31.85400000     25.02200000      8.43000000    0.0208   30.0611
     H     30.93500000     26.45400000      7.85400000    0.0391   30.3998
     H     28.20500000     25.37800000      8.74300000    0.0256   30.7449
     H     28.41300000     26.04300000      7.08700000    0.0299   30.4439
     H     27.78300000     24.37600000      7.31300000    0.0377   30.3111
     H     30.12100000     21.92300000      6.89000000    0.1184   27.2757
     H     32.82200000     28.45600000      5.27400000    0.1265   26.4647
     H     30.13900000     27.52500000      4.18300000    0.0240   26.3385
     H     31.49770000     28.07680000      2.23250000    0.0427   30.0873
     H     31.49180000     29.99600000      6.36360000   -0.0245   23.5731
     H     28.75700000     21.29400000      6.05990000    0.1212   27.4350
