24
chgs=0 nmr=1 
     C     32.77600000     22.51900000     16.57700000    0.1300   42.5542
     N     35.13900000     21.62400000     14.66200000    0.0038  170.9562
     O     33.23300000     23.65900000     16.38400000   -0.2548 -101.8527
     N     33.54800000     21.52600000     16.95000000   -0.1022  126.5429
     C     35.03100000     21.72200000     17.06900000    0.0877  132.2210
     C     35.61500000     22.19000000     15.75900000   -0.0113   29.4073
     O     36.53200000     23.04600000     15.72400000   -0.2365  -87.1936
     O     33.77800000     18.73900000     14.51600000   -0.2620  330.9896
     C     37.12800000     20.29300000     17.87200000    0.0357  149.7304
     C     37.56100000     18.85100000     18.08200000    0.1041  -13.5882
     O     37.75800000     18.02400000     17.19500000   -0.1837 -356.2915
     C     35.66700000     20.38300000     17.44700000   -0.0786  157.9210
     H     34.42500000     20.93200000     14.76600000    0.0871   25.9778
     H     33.14600000     20.63400000     17.15600000    0.0986   27.4039
     H     35.24600000     22.46200000     17.85400000    0.0341   27.5379
     H     34.49400000     18.25400000     14.90900000    0.1689   31.2709
     H     37.75600000     20.74400000     17.09000000    0.0645   29.2028
     H     37.26100000     20.84600000     18.81300000    0.0234   28.8099
     H     35.07400000     19.98200000     18.28200000    0.0197   29.9646
     H     35.55700000     19.72700000     16.57100000   -0.0038   30.0596
     H     31.70620000     22.29040000     16.46200000   -0.0145   23.3976
     H     35.44610000     21.84260000     13.73580000    0.1205   27.6067
     H     32.92470000     18.37670000     14.83380000    0.1671   30.4360
     H     37.61960000     18.63070000     19.15810000    0.0022   20.8598
