35
chgs=0 nmr=1 
     O     29.58600000     43.57000000     19.48300000   -0.2734  -44.8306
     C     32.67200000     41.71700000     12.50500000   -0.1631  193.1248
     C     30.22500000     38.64300000     16.66200000    0.0853  141.3212
     C     29.66400000     39.83900000     17.43400000   -0.0276   34.8056
     N     30.99100000     42.57100000     17.99800000   -0.1420  132.0534
     C     31.74400000     38.87900000     16.29900000   -0.0221  116.4723
     O     31.73700000     40.25700000     15.82400000   -0.2499  255.1072
     C     32.26000000     37.96900000     15.17100000    0.0044  163.1287
     O     33.17400000     43.06700000     16.26500000   -0.3009  302.0754
     O     28.85000000     40.56500000     16.85900000   -0.2222  -92.8486
     C     31.42200000     43.94000000     17.55300000    0.1218  141.2351
     C     32.97900000     43.91800000     17.44500000    0.1019  119.1107
     N     30.13200000     40.06900000     18.64200000   -0.1284  161.4523
     C     29.60700000     41.18000000     19.46700000    0.1648  145.6818
     C     30.07500000     42.53800000     18.98400000    0.0130   33.0232
     H     33.20000000     42.65600000     12.72600000    0.0379   31.1067
     H     32.80100000     41.01800000     13.34500000    0.0114   31.2571
     H     30.16200000     37.75100000     17.30200000    0.0144   29.1432
     H     31.36100000     41.73700000     17.58800000    0.1106   23.9490
     H     32.36600000     38.76400000     17.19900000    0.0003   27.3753
     H     32.61800000     40.51000000     15.57300000    0.1561   31.4607
     H     33.32000000     38.19100000     14.97600000    0.0242   30.1783
     H     32.15500000     36.91600000     15.47300000    0.0259   30.0744
     H     31.67400000     38.14900000     14.25800000    0.0497   30.0003
     H     34.10300000     42.97400000     16.09100000    0.1468   32.2091
     H     31.15100000     44.66200000     18.33700000    0.0443   26.6618
     H     33.35300000     44.93600000     17.26300000    0.0214   27.4102
     H     30.85500000     39.48300000     19.00900000    0.1073   27.0565
     H     28.51100000     41.16800000     19.37000000    0.0571   27.1455
     H     31.60030000     41.93050000     12.37910000    0.0589   30.7325
     H     33.10360000     41.26910000     11.59780000    0.0372   31.1341
     H     29.62730000     38.48370000     15.75240000    0.0259   29.0944
     H     30.93200000     44.24190000     16.61560000    0.0517   28.2427
     H     33.46820000     43.48580000     18.33040000    0.0162   27.8235
     H     29.83110000     40.97170000     20.52360000    0.0410   28.2901
