24
chgs=0 nmr=1 
     C     21.12700000     28.24000000      5.57400000    0.1104   44.8928
     O     19.95800000     28.46500000      5.84200000   -0.2316  -83.0807
     N     21.67400000     30.03400000      8.19100000   -0.0609  134.4516
     C     21.41900000     30.25300000      9.62000000   -0.0083  125.5275
     C     22.50400000     31.22800000     10.13600000   -0.0329   35.6902
     O     23.57900000     31.32100000      9.55400000   -0.2307  -37.2131
     C     21.63700000     28.92300000     10.35300000    0.1926  121.0997
     O     20.54400000     28.04700000     10.05900000   -0.2737  300.6729
     N     22.24100000     31.87300000     11.24100000    0.0292  174.3500
     N     22.09900000     29.16300000      5.60500000   -0.1414  147.1437
     C     21.90700000     30.56300000      5.88100000    0.1265  149.9134
     C     21.46600000     30.95300000      7.26100000    0.0293   34.3273
     O     21.06600000     32.11200000      7.53300000   -0.2670  -53.8839
     H     22.02400000     29.14200000      7.90400000    0.0879   26.3280
     H     20.41000000     30.65000000      9.80700000    0.0381   27.2912
     H     22.57800000     28.46500000     10.01500000    0.0159   27.8901
     H     21.68500000     29.10200000     11.43700000    0.0194   27.6352
     H     20.74700000     27.53500000      9.28500000    0.1545   31.3668
     H     21.34100000     31.75600000     11.66200000    0.1097   27.5396
     H     23.03200000     28.85400000      5.42200000    0.1210   27.2361
     H     22.89500000     31.02900000      5.75500000    0.0542   28.1820
     H     21.50810000     27.23660000      5.33340000   -0.0171   23.5730
     H     22.90230000     32.47850000     11.68370000    0.1199   27.5337
     H     21.28200000     31.02960000      5.10540000    0.0551   27.6458
