9
chgs=0 nmr=1 
     C     28.05400000     16.83500000      9.21000000   -0.0590  173.3766
     C     28.52300000     15.82000000      8.18200000    0.0996  130.5227
     O     28.94600000     16.44500000      6.96700000   -0.2981  304.1787
     H     27.36300000     16.33700000      9.90600000    0.0262   30.3292
     H     29.36700000     15.25300000      8.60200000    0.0028   27.4166
     H     27.69400000     15.13200000      7.95800000    0.0014   27.5344
     H     29.23100000     15.78000000      6.35100000    0.1513   32.3327
     H     27.53620000     17.67480000      8.72360000    0.0420   30.0824
     H     28.93070000     17.18670000      9.77360000    0.0340   29.8265
