28
chgs=0 nmr=1 
     O     36.86100000     37.32000000      9.82200000   -0.2827  340.9778
     N     30.79500000     37.01500000     10.09500000   -0.1041  126.0357
     C     31.72000000     36.28900000      9.17600000    0.1067  141.0873
     C     30.95500000     35.21100000      8.45900000   -0.0352   28.2275
     O     30.02500000     34.61800000      9.04000000   -0.2487  -61.0022
     C     32.99500000     35.88300000      9.93400000   -0.1895  155.3019
     C     33.30600000     34.38100000      9.84000000    0.0020  163.5355
     C     33.10900000     36.38100000     11.43500000    0.0180  170.2683
     C     34.53500000     34.02800000     10.72000000   -0.0262  172.6013
     N     31.24400000     34.98600000      7.19700000    0.0276  162.4943
     C     30.49400000     38.26100000      9.72900000    0.1411   44.6490
     O     30.84900000     38.85000000      8.70600000   -0.2743  -52.3037
     H     36.90400000     38.19400000      9.45200000    0.1492   31.4749
     H     30.42700000     36.59700000     10.92600000    0.1238   25.8419
     H     32.03600000     37.01200000      8.41000000    0.0140   25.6725
     H     33.82000000     36.38500000      9.40700000    0.0154   29.0188
     H     32.43400000     33.80800000     10.18800000    0.0314   30.0083
     H     33.52200000     34.12000000      8.79300000    0.0003   29.9013
     H     34.05800000     36.03000000     11.86700000    0.0307   29.2578
     H     33.08000000     37.48000000     11.46000000    0.0240   30.5132
     H     32.26900000     35.97900000     12.02000000    0.0103   31.0520
     H     34.74500000     32.95100000     10.64200000    0.0187   30.3800
     H     35.41000000     34.59800000     10.37300000    0.0358   30.4626
     H     34.32100000     34.28500000     11.76800000    0.0314   29.8972
     H     31.93100000     35.53000000      6.71500000    0.1155   26.9594
     H     37.11920000     37.35200000     10.76680000    0.1602   30.8526
     H     30.74910000     34.24800000      6.73830000    0.1214   27.2607
     H     29.80890000     38.80720000     10.39400000   -0.0166   23.4965
