16
chgs=0 nmr=1 
     C     27.81000000     28.74800000      8.99900000   -0.0902  168.6039
     C     31.94500000     29.44900000     10.43600000   -0.1784  193.9476
     C     27.96700000     28.08700000     10.41700000   -0.0639  169.4061
     C     26.34400000     29.05000000      8.64500000   -0.0500  172.5269
     H     28.22100000     28.06200000      8.24300000    0.0240   29.8842
     H     28.37700000     29.69100000      8.98500000    0.0247   29.9664
     H     32.69500000     29.27400000     11.22100000    0.0428   31.0212
     H     31.46200000     30.42300000     10.60100000    0.0447   31.0289
     H     31.18600000     28.65300000     10.47000000    0.0487   30.9097
     H     29.03100000     27.89400000     10.61600000    0.0300   30.0517
     H     27.56800000     28.76600000     11.18400000    0.0283   30.5449
     H     27.41100000     27.13800000     10.44300000    0.0263   30.3793
     H     25.87900000     29.50700000      9.53100000    0.0171   30.6491
     H     32.43580000     29.44540000      9.45160000    0.0435   31.0135
     H     26.26570000     29.77390000      7.82050000    0.0260   30.1868
     H     25.74960000     28.15870000      8.39550000    0.0263   30.3841
