27
chgs=0 nmr=1 
     C     27.81000000     28.74800000      8.99900000   -0.1754  193.2223
     N     30.31000000     25.45800000      5.38400000   -0.0728  146.7542
     C     30.28800000     24.24500000      6.19300000    0.0060  133.3796
     C     29.27900000     23.22700000      5.64100000    0.0070   29.1013
     O     28.47800000     23.52200000      4.72500000   -0.2347  -52.2187
     C     29.90300000     24.59000000      7.66500000   -0.1684  151.4545
     C     30.86200000     25.49600000      8.38900000    0.0577  168.6533
     C     28.47600000     25.13500000      7.70500000   -0.0050  169.3563
     N     29.38000000     22.05700000      6.23200000    0.0147  170.9948
     C     31.44000000     26.07900000      5.08000000    0.1224   43.9991
     O     32.57600000     25.80200000      5.46100000   -0.2682  -50.9602
     H     28.22100000     28.06200000      8.24300000    0.0358   30.9885
     H     28.37700000     29.69100000      8.98500000    0.0426   31.0410
     H     29.44600000     25.83300000      5.04800000    0.1248   26.4631
     H     31.28700000     23.78400000      6.19600000    0.0366   26.7342
     H     29.89100000     23.63600000      8.21200000   -0.0077   29.6894
     H     30.49800000     25.67400000      9.41200000    0.0222   30.4511
     H     31.85400000     25.02200000      8.43000000    0.0251   29.9657
     H     30.93500000     26.45400000      7.85400000    0.0356   30.3159
     H     28.20500000     25.37800000      8.74300000    0.0282   30.6882
     H     28.41300000     26.04300000      7.08700000    0.0267   30.5229
     H     27.78300000     24.37600000      7.31300000    0.0367   30.1936
     H     30.12100000     21.92300000      6.89000000    0.1185   27.2323
     H     26.76150000     28.96400000      8.74580000    0.0461   31.0160
     H     27.91980000     28.28560000      9.99100000    0.0450   31.0968
     H     28.75700000     21.29400000      6.05990000    0.1207   27.4248
     H     31.28000000     26.99650000      4.49470000   -0.0201   23.4562
