38
chgs=0 nmr=1 
     N     31.69700000     18.31100000     20.40600000    0.0333  166.3147
     C     31.59300000     20.55300000     14.65500000    0.1288   42.3809
     O     32.15900000     21.31100000     13.86100000   -0.2541  -83.6382
     N     31.11300000     20.86300000     15.86000000   -0.0999  128.3574
     C     31.28800000     22.20100000     16.41700000    0.0575  131.8465
     C     32.77600000     22.51900000     16.57700000   -0.0436   29.8434
     O     33.23300000     23.65900000     16.38400000   -0.2399  -65.0219
     C     30.52000000     22.30000000     17.76400000   -0.1942  151.8666
     C     29.00600000     22.04300000     17.44200000    0.0224  161.5314
     C     30.83200000     23.69900000     18.35800000    0.0272  174.0747
     C     28.40700000     22.94800000     16.36600000   -0.0491  181.9704
     C     29.94200000     21.10600000     21.24000000    0.1166   43.1192
     O     29.47000000     20.67700000     20.19000000   -0.2531  -79.1888
     N     33.54800000     21.52600000     16.95000000    0.0243  162.3804
     N     31.23300000     21.09000000     21.45900000   -0.0949  156.5190
     C     32.26200000     20.67000000     20.51400000    0.0784  146.3947
     C     32.12800000     19.36400000     19.75000000   -0.0068   31.2718
     O     32.54600000     19.31700000     18.55800000   -0.2688  -49.3540
     H     31.43900000     18.43200000     21.36400000    0.1119   27.0945
     H     30.62600000     20.16900000     16.39000000    0.1203   26.6754
     H     30.85300000     22.93800000     15.72600000    0.0267   27.5671
     H     30.88200000     21.52100000     18.45100000    0.0198   28.5538
     H     28.90200000     21.00100000     17.10700000   -0.0066   29.9294
     H     28.43100000     22.19000000     18.36800000    0.0169   29.8599
     H     30.30700000     23.81600000     19.31800000    0.0038   31.1321
     H     31.91600000     23.79500000     18.51900000    0.0460   30.0149
     H     30.49400000     24.47800000     17.65800000    0.0320   30.1400
     H     27.34900000     22.68900000     16.21600000    0.0235   30.6035
     H     28.48600000     23.99800000     16.68500000    0.0278   30.5895
     H     28.95600000     22.80900000     15.42300000    0.0439   30.3609
     H     33.14600000     20.63400000     17.15600000    0.1000   24.5472
     H     31.54300000     21.39500000     22.36000000    0.1182   27.6263
     H     32.31500000     21.45700000     19.74700000    0.0588   26.9094
     H     31.60950000     17.39610000     20.01200000    0.1310   26.9674
     H     31.45430000     19.49380000     14.39250000   -0.0313   23.4395
     H     29.26390000     21.50910000     22.00660000    0.0082   23.1352
     H     34.53630000     21.65660000     17.02930000    0.1056   27.5413
     H     33.23390000     20.70250000     21.02820000    0.0598   28.2667
