28
chgs=0 nmr=1 
     C     24.62000000     34.77800000      4.85300000    0.0084   68.8785
     C     30.95500000     35.21100000      8.45900000    0.1313   41.0607
     O     30.02500000     34.61800000      9.04000000   -0.2896  -82.5917
     N     31.24400000     34.98600000      7.19700000   -0.1309  143.1048
     C     30.50500000     33.88400000      6.51200000    0.0770  133.1137
     C     30.09100000     34.39300000      5.07800000   -0.0058  118.0033
     O     31.44000000     34.51300000      4.48700000   -0.2886  247.9397
     C     29.42000000     35.75600000      5.11900000    0.0336  170.8423
     C     25.28800000     34.60900000      7.49900000    0.0067   64.8489
     C     24.14700000     33.96600000      7.03800000    0.0117   67.3387
     C     26.13600000     35.34600000      6.64000000   -0.0073   61.6923
     C     23.81200000     34.03100000      5.67700000    0.0237   68.7368
     C     25.81000000     35.39200000      5.26700000    0.0034   64.8330
     H     24.31900000     34.89900000      3.82300000   -0.0153   24.4315
     H     31.93100000     35.53000000      6.71500000    0.1130   26.4376
     H     29.59500000     33.63500000      7.07700000    0.0600   26.0689
     H     29.47000000     33.64700000      4.56000000    0.0284   27.4131
     H     32.04400000     33.95000000      4.95800000    0.1477   32.4257
     H     29.15200000     36.06400000      4.09800000    0.0428   29.7631
     H     28.51000000     35.69800000      5.73500000    0.0299   29.3519
     H     30.11200000     36.49200000      5.55400000    0.0115   29.8561
     H     23.51900000     33.41800000      7.72500000   -0.0114   24.2541
     H     27.00600000     35.85800000      7.02300000    0.0144   23.8822
     H     22.94800000     33.51100000      5.29000000   -0.0133   24.1820
     H     26.45800000     35.88500000      4.55700000   -0.0158   24.0818
     H     31.51460000     35.99950000      8.98350000   -0.0087   23.1641
     H     31.16480000     33.00520000      6.46380000    0.0368   28.9825
     H     25.58500000     34.52800000      8.55500000    0.0063   23.8496
