33
chgs=0 nmr=1 
     N     24.79000000     32.02100000     13.61800000   -0.1401  138.9376
     C     25.14900000     31.60900000     14.98000000    0.1138  153.6441
     C     26.31000000     30.59400000     14.96700000   -0.0334  154.4567
     C     26.29000000     29.48000000     13.96000000   -0.1675  163.8108
     C     27.39300000     28.44200000     14.22900000    0.0182  162.5891
     C     24.94200000     28.80700000     13.95200000    0.0040  167.0550
     C     21.44700000     27.86900000     16.02600000    0.0137   67.4462
     C     21.32500000     28.81300000     15.00500000   -0.0007   63.6545
     C     20.63800000     26.73500000     16.05300000    0.0011   67.3071
     C     20.36900000     28.64800000     14.00100000    0.0196   64.9341
     C     19.67700000     26.53900000     15.05100000    0.0221   68.5669
     C     19.59300000     27.46500000     14.02100000   -0.0011   66.0918
     C     23.50900000     32.22400000     13.29000000    0.1454   37.8208
     O     22.54400000     31.94200000     14.03400000   -0.2783  -79.0690
     H     25.50600000     32.15100000     12.93200000    0.1189   27.1659
     H     24.28500000     31.20800000     15.53000000    0.0661   26.3897
     H     27.23500000     31.16400000     14.79900000    0.0074   29.5870
     H     26.34200000     30.12800000     15.96300000    0.0169   30.3457
     H     26.46700000     29.91100000     12.96300000   -0.0099   30.1200
     H     27.34200000     27.64700000     13.47100000    0.0249   30.2517
     H     28.37700000     28.93200000     14.18100000    0.0176   30.2676
     H     27.24900000     28.00500000     15.22800000    0.0205   30.7784
     H     24.94200000     27.99400000     13.21100000    0.0201   30.6674
     H     24.73300000     28.39300000     14.95000000    0.0170   30.9651
     H     24.16700000     29.54200000     13.69000000    0.0427   29.7945
     H     21.97400000     29.67600000     14.99200000   -0.0005   23.5719
     H     20.75100000     26.00800000     16.84400000   -0.0198   24.3794
     H     20.22700000     29.39700000     13.23600000   -0.0119   24.0362
     H     19.01600000     25.68500000     15.08000000   -0.0184   24.2422
     H     18.91100000     27.27600000     13.20500000   -0.0180   24.3703
     H     25.54030000     32.51210000     15.47110000    0.0301   28.3195
     H     22.20570000     28.00520000     16.81080000   -0.0153   24.0513
     H     23.29520000     32.61130000     12.28290000   -0.0053   23.0199
