13
chgs=0 nmr=1 
     C     33.28000000     41.08600000     11.22700000   -0.0215  177.2426
     C     34.76200000     40.79900000     11.47000000   -0.0828  166.2196
     C     35.61400000     40.84700000     10.24000000    0.0472  146.0139
     N     35.10000000     40.07300000      9.10100000   -0.2175  237.8654
     H     32.75600000     40.14700000     10.99400000    0.0247   30.0939
     H     33.17300000     41.78500000     10.38400000    0.0275   30.2200
     H     35.14400000     41.54500000     12.18200000    0.0188   29.8518
     H     34.85000000     39.79400000     11.91000000    0.0106   29.9011
     H     35.70300000     41.89800000      9.92700000    0.0105   28.9692
     H     36.60900000     40.45600000     10.49800000   -0.0065   27.9990
     H     35.72800000     40.16100000      8.32700000    0.0892   31.7319
     H     35.02300000     39.11000000      9.36000000    0.0817   32.5918
     H     32.84840000     41.53390000     12.13420000    0.0181   30.3558
