21
chgs=0 nmr=1 
     C     21.18400000     24.26300000     11.69000000    0.0857  141.7237
     C     21.11000000     24.11100000     10.17300000   -0.0636   26.8809
     O     21.84100000     23.19800000      9.68600000   -0.2763  -57.7850
     C     22.65000000     24.51600000     12.17200000   -0.1814  149.0557
     C     22.66200000     24.81900000     13.69900000   -0.0174  154.9815
     C     23.37600000     25.64500000     11.40900000    0.0068  173.0400
     C     24.12300000     24.98100000     14.19500000   -0.0299  173.5174
     N     20.29100000     24.87500000      9.50700000    0.0355  168.2918
     H     20.53700000     25.08800000     12.02200000   -0.0260   30.2001
     H     23.21600000     23.58600000     12.01300000    0.0275   29.3800
     H     22.10700000     25.74900000     13.89000000    0.0073   30.5972
     H     22.18400000     23.98900000     14.23900000    0.0110   29.8568
     H     24.39600000     25.75900000     11.80600000    0.0280   29.5877
     H     23.42500000     25.39200000     10.34000000    0.0410   30.0422
     H     22.82500000     26.58800000     11.53800000    0.0040   31.3889
     H     24.12300000     25.19500000     15.27400000    0.0218   30.2503
     H     24.68000000     24.05100000     14.00600000    0.0272   30.6325
     H     24.60300000     25.81200000     13.65700000    0.0298   29.7488
     H     19.77500000     25.56800000     10.01100000    0.1123   27.2156
     H     20.84000000     23.30620000     12.10980000    0.0401   28.7603
     H     20.15030000     24.80670000      8.51930000    0.1168   27.5688
