22
chgs=0 nmr=1 
     N     37.63300000     26.54300000     11.86700000   -0.1077  129.5076
     C     37.47100000     27.39100000     10.66800000    0.0445  130.4713
     C     37.44100000     28.88200000     11.05200000    0.0181   26.7149
     O     38.02000000     29.77200000     10.38200000   -0.2311  -80.0914
     C     36.19300000     27.05800000      9.91100000   -0.0391  152.2382
     C     36.15300000     25.62000000      9.40900000   -0.0349  168.2422
     C     34.75800000     25.28000000      8.90000000   -0.0205  174.5755
     N     36.81100000     29.17000000     12.19200000   -0.0106  171.7451
     C     38.72800000     26.59100000     12.61100000    0.1362   34.5602
     O     39.70400000     27.34600000     12.27700000   -0.2834 -142.6967
     H     36.89700000     25.91700000     12.12400000    0.1105   26.9920
     H     38.32600000     27.22700000      9.99500000    0.0352   27.3205
     H     35.33700000     27.21800000     10.58200000   -0.0013   30.3472
     H     36.11200000     27.73300000      9.04600000    0.0476   29.3314
     H     36.87800000     25.50100000      8.59000000    0.0294   29.9164
     H     36.41500000     24.94000000     10.23300000    0.0017   30.1194
     H     34.16900000     24.86400000      9.73100000    0.0258   30.2373
     H     34.27900000     26.20100000      8.53600000    0.0299   30.6618
     H     36.39600000     28.44100000     12.73600000    0.0924   26.9611
     H     34.78330000     24.54580000      8.08130000    0.0324   30.0556
     H     36.75670000     30.12000000     12.49940000    0.1227   27.7316
     H     38.77580000     25.98950000     13.53070000    0.0022   22.8771
