16
chgs=0 nmr=1 
     C     30.84700000     30.93100000     24.11800000   -0.0445  176.2292
     C     29.41200000     30.79600000     24.59800000   -0.0626  163.4345
     C     29.27100000     31.31400000     26.01600000    0.0952  148.5254
     N     27.87500000     31.31700000     26.44300000   -0.1213  158.2615
     C     27.13200000     32.42300000     26.57400000    0.0000   43.9038
     N     27.63000000     33.65600000     26.46100000   -0.2420   27.1917
     H     31.49100000     30.45600000     24.87200000    0.0183   30.6726
     H     31.07600000     32.00600000     24.06500000    0.0331   30.3579
     H     28.75300000     31.37500000     23.93500000    0.0313   29.8841
     H     29.12000000     29.73600000     24.57000000    0.0070   30.1220
     H     29.85100000     30.66900000     26.69200000    0.0139   29.0539
     H     29.66200000     32.34100000     26.06300000    0.0444   26.6081
     H     27.44700000     30.43800000     26.65100000    0.1146   28.4575
     H     26.91600000     34.35400000     26.51200000    0.0819   23.9947
     H     31.10430000     30.49220000     23.14270000    0.0285   30.2983
     H     26.04450000     32.32100000     26.70400000    0.0021   23.2905
