19
chgs=0 nmr=1 
     C     29.15100000     28.65500000     18.75500000   -0.1846  194.0509
     C     27.04300000     24.99200000     19.57100000    0.0006  164.3252
     C     25.93100000     25.84400000     18.95900000   -0.1806  164.5225
     C     26.20300000     26.08300000     17.47100000   -0.0072  160.6238
     C     24.57700000     25.19000000     19.07900000    0.0133  162.7126
     H     29.23500000     27.64100000     19.17300000    0.0467   31.0199
     H     28.32300000     28.68600000     18.03100000    0.0494   31.0034
     H     27.96900000     25.58500000     19.54900000    0.0199   30.0510
     H     27.16400000     24.09800000     18.94200000    0.0126   30.8647
     H     25.90600000     26.81600000     19.47400000    0.0124   29.7921
     H     25.39600000     26.69700000     17.04400000    0.0188   30.2522
     H     27.16300000     26.60700000     17.35300000    0.0193   29.9904
     H     26.24600000     25.11700000     16.94600000    0.0159   30.7938
     H     23.81400000     25.84000000     18.62600000    0.0180   30.2128
     H     24.59000000     24.22100000     18.55800000    0.0131   30.6670
     H     24.33900000     25.03100000     20.14100000    0.0169   30.1804
     H     28.87000000     29.31810000     19.58640000    0.0482   30.7827
     H     30.07520000     28.84280000     18.18880000    0.0478   30.8022
     H     26.88710000     24.65370000     20.60600000    0.0195   30.3417
