47
chgs=0 nmr=1 
     C     36.01200000     30.86000000     19.22100000   -0.1973  192.7211
     N     41.18900000     32.08500000     19.03100000   -0.2546  110.5823
     C     41.46100000     30.75100000     19.59400000    0.0361  128.9235
     C     40.16800000     30.02600000     19.91800000    0.1372   29.1422
     O     39.26400000     30.66200000     20.52100000   -0.2778  -30.0563
     C     42.19500000     31.14200000     20.91300000    0.0162  153.4299
     C     42.90400000     32.41400000     20.55300000   -0.0124  162.3870
     C     41.82200000     33.18800000     19.81300000    0.1358  132.6958
     N     40.05900000     28.75800000     19.60700000   -0.2735  123.1617
     C     38.81700000     28.02000000     19.88900000    0.1708  142.4857
     C     39.09000000     26.62900000     19.32500000   -0.0769  162.5844
     C     40.08200000     26.90400000     18.19800000   -0.0542  160.4938
     C     41.03500000     27.90900000     18.87900000    0.1389  137.9987
     C     40.22600000     33.71600000     17.50900000    0.0544  142.5399
     C     40.44900000     32.27800000     17.94500000    0.0672   30.1580
     O     39.93600000     31.33600000     17.31500000   -0.2692  -52.1581
     C     38.69300000     34.10600000     17.59500000   -0.2041  152.6042
     C     38.47100000     35.54600000     17.04500000    0.0235  163.7017
     C     38.14600000     33.93200000     19.02700000   -0.0144  167.1766
     H     35.81700000     31.93400000     19.08500000    0.0306   31.2704
     H     36.97000000     30.72500000     19.74400000    0.0826   29.7191
     H     42.11200000     30.14800000     18.94400000    0.0062   27.1372
     H     41.47600000     31.30900000     21.72900000    0.0321   29.2366
     H     42.91200000     30.36200000     21.21000000    0.0177   29.3612
     H     43.23600000     32.95400000     21.45200000    0.0236   29.5612
     H     43.76900000     32.21800000     19.90300000    0.0229   29.7876
     H     41.10900000     33.65500000     20.50800000    0.0399   27.7324
     H     42.25100000     33.95800000     19.15500000    0.0450   27.3263
     H     38.00200000     28.46900000     19.30300000    0.0432   27.8113
     H     39.53200000     25.97200000     20.08900000    0.0252   29.7277
     H     38.16800000     26.17200000     18.93700000    0.0310   29.3977
     H     40.61100000     25.98900000     17.89400000    0.0252   29.5603
     H     39.58500000     27.34800000     17.32300000    0.0521   29.4275
     H     41.73000000     27.40700000     19.56800000    0.0275   28.3866
     H     41.60700000     28.49000000     18.14100000    0.0545   27.2366
     H     40.79400000     34.38800000     18.16900000   -0.0033   28.7110
     H     38.14400000     33.41300000     16.94100000    0.0290   29.2049
     H     38.76200000     36.27900000     17.81200000    0.0132   30.5975
     H     39.08700000     35.69300000     16.14500000    0.0132   30.3942
     H     37.08200000     34.21100000     19.05000000    0.0233   30.4401
     H     38.25700000     32.88200000     19.33700000    0.0721   29.2558
     H     38.70900000     34.57900000     19.71600000    0.0057   30.9480
     H     35.20410000     30.41700000     19.82190000    0.0226   31.3893
     H     36.06390000     30.37270000     18.23620000    0.0346   31.3408
     H     38.52760000     28.04050000     20.95010000    0.0369   27.8674
     H     40.53700000     33.86550000     16.46450000    0.0227   29.4484
     H     37.41040000     35.68620000     16.78910000    0.0250   30.0453
