25
chgs=0 nmr=1 
     O     29.58600000     43.57000000     19.48300000   -0.2423  -44.6037
     C     29.91900000     40.89000000     20.93800000    0.0315  149.5105
     C     29.18300000     39.72200000     21.58100000   -0.1610  163.8985
     C     29.30800000     39.75000000     23.09500000    0.0235  163.0914
     C     27.70000000     39.72100000     21.22800000   -0.0085  167.8549
     N     30.99100000     42.57100000     17.99800000   -0.0064  162.0613
     C     29.66400000     39.83900000     17.43400000    0.1011   42.8072
     O     28.85000000     40.56500000     16.85900000   -0.2565  -97.7504
     N     30.13200000     40.06900000     18.64200000   -0.1227  133.4285
     C     29.60700000     41.18000000     19.46700000    0.0411  136.2872
     C     30.07500000     42.53800000     18.98400000    0.0196   28.7671
     H     30.99700000     40.68600000     21.01500000    0.0004   30.0515
     H     29.67500000     41.79500000     21.51400000    0.0310   29.6790
     H     29.62800000     38.78600000     21.21200000   -0.0045   30.0584
     H     28.76600000     38.89400000     23.52400000    0.0246   30.0957
     H     30.37000000     39.69000000     23.37600000    0.0176   30.2198
     H     28.87900000     40.68700000     23.48100000    0.0264   30.6163
     H     27.20800000     38.86400000     21.71100000    0.0228   30.3631
     H     27.23900000     40.65500000     21.58100000    0.0311   30.7978
     H     27.58300000     39.64300000     20.13700000    0.0424   29.9535
     H     31.36100000     41.73700000     17.58800000    0.1069   25.8745
     H     30.85500000     39.48300000     19.00900000    0.1176   27.4578
     H     28.51100000     41.16800000     19.37000000    0.0533   26.9045
     H     31.27780000     43.48210000     17.70190000    0.1235   27.3842
     H     30.06730000     38.97920000     16.87900000   -0.0124   23.0509
