19
chgs=0 nmr=1 
     N     37.63300000     26.54300000     11.86700000   -0.1077  130.7546
     C     37.47100000     27.39100000     10.66800000    0.0267  130.0562
     C     37.44100000     28.88200000     11.05200000    0.0177   26.6412
     O     38.02000000     29.77200000     10.38200000   -0.2308  -80.9277
     C     36.19300000     27.05800000      9.91100000   -0.0517  162.5912
     C     36.15300000     25.62000000      9.40900000   -0.0004  176.2820
     N     36.81100000     29.17000000     12.19200000   -0.0107  171.7226
     C     38.72800000     26.59100000     12.61100000    0.1358   34.3462
     O     39.70400000     27.34600000     12.27700000   -0.2831 -142.8369
     H     36.89700000     25.91700000     12.12400000    0.1110   26.9438
     H     38.32600000     27.22700000      9.99500000    0.0377   27.3496
     H     35.33700000     27.21800000     10.58200000    0.0036   30.1547
     H     36.11200000     27.73300000      9.04600000    0.0497   29.2767
     H     36.87800000     25.50100000      8.59000000    0.0393   30.2880
     H     36.41500000     24.94000000     10.23300000    0.0061   30.4821
     H     36.39600000     28.44100000     12.73600000    0.0924   26.9726
     H     35.14570000     25.37450000      9.04150000    0.0386   30.1752
     H     36.75670000     30.12000000     12.49940000    0.1231   27.7213
     H     38.77580000     25.98950000     13.53070000    0.0027   22.8413
