35
chgs=0 nmr=1 
     C     22.50400000     31.22800000     10.13600000    0.1128   47.3002
     O     23.57900000     31.32100000      9.55400000   -0.2771  -47.4605
     N     22.24100000     31.87300000     11.24100000   -0.0691  133.7536
     C     23.21200000     32.76200000     11.89100000    0.0408  132.8293
     C     23.50900000     32.22400000     13.29000000    0.0483   24.8630
     O     22.54400000     31.94200000     14.03400000   -0.2812  -27.0689
     C     22.69900000     34.26700000     11.98500000   -0.0178  154.9355
     C     23.72700000     35.13100000     12.72200000   -0.0355  176.1009
     N     24.79000000     32.02100000     13.61800000   -0.0563  128.6906
     C     25.14900000     31.60900000     14.98000000   -0.0561  136.4712
     C     25.69800000     32.87600000     15.66900000   -0.0236   27.8185
     O     26.15800000     33.73000000     14.89400000   -0.2499  -25.5133
     C     26.31000000     30.59400000     14.96700000    0.0361  157.0367
     C     26.29000000     29.48000000     13.96000000   -0.0184  169.3833
     C     24.94200000     28.80700000     13.95200000   -0.0499  176.4106
     N     25.62100000     32.94500000     16.95000000    0.0704  175.0188
     H     21.34100000     31.75600000     11.66200000    0.1165   26.8419
     H     24.14700000     32.76300000     11.31200000    0.0126   26.7377
     H     21.74500000     34.28200000     12.53300000    0.0227   29.6199
     H     23.36200000     36.16700000     12.78000000    0.0271   30.3560
     H     23.87600000     34.73700000     13.73800000    0.0559   30.3356
     H     24.68200000     35.10900000     12.17700000    0.0291   30.3975
     H     25.50600000     32.15100000     12.93200000    0.1246   25.8917
     H     24.28500000     31.20800000     15.53000000    0.0280   26.7241
     H     27.23500000     31.16400000     14.79900000    0.0158   29.6346
     H     26.34200000     30.12800000     15.96300000    0.0060   29.9263
     H     26.46700000     29.91100000     12.96300000    0.0135   29.9714
     H     24.94200000     27.99400000     13.21100000    0.0281   30.3848
     H     24.73300000     28.39300000     14.95000000    0.0154   30.9000
     H     24.16700000     29.54200000     13.69000000    0.0509   30.0986
     H     25.18900000     32.20800000     17.47000000    0.1193   27.2112
     H     21.73270000     30.53490000      9.76920000   -0.0169   23.5426
     H     22.54660000     34.58290000     10.94240000    0.0315   29.7653
     H     27.07870000     28.73780000     14.15240000    0.0236   29.9794
     H     25.99730000     33.74220000     17.42210000    0.1229   27.4364
