33
chgs=0 nmr=1 
     C     22.65000000     24.51600000     12.17200000   -0.0961  179.0581
     N     24.24000000     19.23300000     12.24600000   -0.0316  175.2886
     C     23.37600000     25.64500000     11.40900000   -0.1026  179.4261
     C     26.48200000     19.28000000     14.43200000    0.1149   44.4659
     O     25.60900000     19.38800000     15.28700000   -0.2428  -87.1030
     N     26.58500000     20.06300000     13.37800000   -0.1099  134.0868
     C     25.59400000     21.10900000     13.07200000    0.0444  135.3488
     C     24.24100000     20.43600000     12.85700000    0.0025   34.8852
     O     23.26400000     20.95100000     13.32900000   -0.1710  -63.7376
     C     26.08400000     21.88800000     11.83300000    0.0185  147.2795
     C     27.42600000     22.61600000     11.90200000   -0.1615  162.4170
     C     27.71800000     23.34100000     10.57800000    0.0186  160.6411
     C     27.38000000     23.72100000     12.95500000   -0.0023  165.9917
     H     23.21600000     23.58600000     12.01300000    0.0335   30.2036
     H     25.09100000     18.79700000     11.95400000    0.0990   26.7919
     H     24.39600000     25.75900000     11.80600000    0.0317   30.4212
     H     23.42500000     25.39200000     10.34000000    0.0276   30.4326
     H     22.82500000     26.58800000     11.53800000    0.0311   30.2798
     H     27.36400000     19.94300000     12.76300000    0.1091   27.3262
     H     25.51600000     21.80500000     13.92000000    0.0350   27.3334
     H     26.14900000     21.16800000     11.00400000   -0.0078   29.9708
     H     25.31800000     22.64300000     11.60300000    0.0326   29.8440
     H     28.23400000     21.90500000     12.13000000    0.0008   30.1283
     H     28.68700000     23.85800000     10.64800000    0.0279   30.0082
     H     27.75200000     22.60800000      9.75900000    0.0157   30.3126
     H     26.92400000     24.07600000     10.38000000    0.0270   30.5426
     H     28.35200000     24.23400000     12.99200000    0.0248   30.2502
     H     26.59400000     24.44400000     12.69300000    0.0296   30.8355
     H     27.16100000     23.28100000     13.93900000    0.0340   29.8798
     H     21.61880000     24.33800000     11.83300000    0.0315   30.4068
     H     22.65850000     24.73010000     13.25090000    0.0353   30.2610
     H     23.35340000     18.79510000     12.09710000    0.1229   27.9931
     H     27.25840000     18.50640000     14.52510000   -0.0224   23.4027
