21
chgs=0 nmr=1 
     C     21.86100000     31.34200000      3.47400000   -0.0229  141.9172
     C     21.15600000     30.72600000      2.31100000    0.1000   -9.7126
     O     19.94200000     30.79300000      2.17000000   -0.1731 -348.8109
     C     21.12700000     28.24000000      5.57400000    0.1260   45.6950
     O     19.95800000     28.46500000      5.84200000   -0.2247  -95.4890
     N     21.67400000     30.03400000      8.19100000    0.0123  167.5934
     N     22.09900000     29.16300000      5.60500000   -0.1138  145.3712
     C     21.90700000     30.56300000      5.88100000   -0.0517  131.2510
     C     21.46600000     30.95300000      7.26100000    0.0241   32.7356
     O     21.06600000     32.11200000      7.53300000   -0.2418  -45.2329
     C     21.02300000     31.22300000      4.78400000    0.0249  161.3194
     H     22.03900000     32.40600000      3.26000000    0.0654   28.5761
     H     22.82400000     30.83100000      3.61900000   -0.0030   29.4121
     H     22.02400000     29.14200000      7.90400000    0.0996   26.4620
     H     23.03200000     28.85400000      5.42200000    0.1191   27.0023
     H     22.89500000     31.02900000      5.75500000    0.0483   28.5703
     H     20.13500000     30.60100000      4.60000000    0.0650   28.2848
     H     20.70800000     32.22400000      5.11400000    0.0449   28.2625
     H     21.85690000     30.22180000      1.62940000   -0.0091   20.8502
     H     21.50810000     27.23660000      5.33340000   -0.0113   23.6651
     H     21.50030000     30.18320000      9.16440000    0.1219   27.4773
