26
chgs=0 nmr=1 
     N     27.34000000     24.43000000      2.61400000   -0.1416  220.1147
     C     26.26600000     25.41300000      2.84200000   -0.0481  133.6108
     C     26.91300000     26.63900000      3.53100000   -0.0986   33.4877
     O     27.88600000     26.46300000      4.26300000   -0.2091  -46.1457
     C     25.11200000     24.88000000      3.64900000    0.0387  156.7255
     C     25.35300000     24.86000000      5.13400000   -0.1082  161.4153
     S     23.93000000     23.95900000      5.90400000   -0.1081  631.6116
     C     21.65600000     26.84700000      5.24000000   -0.0731  178.8744
     C     21.63100000     26.64200000      3.73100000   -0.0974  179.4299
     N     26.33500000     27.77000000      3.25800000    0.0465  174.0437
     H     26.96100000     23.61900000      2.16800000    0.0793   31.9792
     H     28.04300000     24.83400000      2.02900000    0.0882   31.7285
     H     25.88000000     25.74300000      1.86700000   -0.0127   27.8548
     H     24.23300000     25.51000000      3.45100000    0.0130   29.3835
     H     24.90700000     23.85100000      3.31900000    0.0255   30.1439
     H     26.29500000     24.33800000      5.35600000    0.0761   28.1972
     H     25.40300000     25.88800000      5.52200000    0.0691   29.1572
     H     22.70900000     26.81500000      5.55600000    0.0210   30.1480
     H     22.06200000     27.53200000      3.24900000    0.0131   30.6506
     H     22.24200000     25.76100000      3.48700000    0.0469   29.9178
     H     25.55800000     27.80400000      2.63000000    0.1129   27.2215
     H     24.31650000     23.97770000      7.18690000    0.0692   30.2139
     H     21.09940000     26.09800000      5.82240000    0.0361   30.2653
     H     21.27490000     27.85040000      5.48060000    0.0191   30.4278
     H     20.61700000     26.48570000      3.33430000    0.0275   30.3546
     H     26.67910000     28.60590000      3.68560000    0.1148   27.6230
