17
chgs=0 nmr=1 
     N     29.59900000     18.59900000      9.82800000    0.0046  163.9329
     C     26.54100000     18.73200000      9.25100000    0.1138   41.8461
     O     26.33300000     18.53600000     10.45700000   -0.2642  -93.5654
     N     27.36100000     17.95900000      8.55900000   -0.1323  139.2595
     C     28.05400000     16.83500000      9.21000000    0.0301  136.5837
     C     29.25800000     17.31800000      9.98400000    0.0020   27.2995
     O     29.93000000     16.47700000     10.60600000   -0.2452  -34.0912
     C     28.52300000     15.82000000      8.18200000    0.1725  125.7978
     O     28.94600000     16.44500000      6.96700000   -0.3018  319.4440
     H     29.07000000     19.20900000      9.23800000    0.1078   25.5059
     H     27.51100000     18.13900000      7.58700000    0.1199   25.9825
     H     27.36300000     16.33700000      9.90600000    0.0626   27.0954
     H     29.36700000     15.25300000      8.60200000    0.0368   26.6881
     H     27.69400000     15.13200000      7.95800000    0.0119   27.4429
     H     29.23100000     15.78000000      6.35100000    0.1665   32.0431
     H     30.40390000     18.92440000     10.32420000    0.1222   27.5003
     H     26.02170000     19.52920000      8.69890000   -0.0071   23.1123
