32
chgs=0 nmr=1 
     N     28.52500000     34.44700000     18.18900000   -0.0748  125.3879
     C     29.80100000     34.14500000     18.82900000    0.0580  142.2546
     C     30.05200000     35.04200000     20.00400000    0.0221   26.5432
     O     30.10500000     36.30500000     19.78800000   -0.3150  -38.5260
     C     30.92500000     34.30400000     17.75300000   -0.0005  147.5163
     C     32.34500000     34.18300000     18.35800000   -0.0515  167.4917
     C     32.55500000     32.78300000     18.87000000   -0.0295  173.7899
     N     32.76300000     35.83100000     23.09000000    0.0201  167.4719
     C     27.47500000     33.65100000     18.30400000    0.1293   41.8683
     O     27.50700000     32.58700000     18.95800000   -0.2919  -70.0462
     N     30.12400000     34.53300000     21.19100000   -0.0327  120.9310
     C     30.47900000     35.36900000     22.37400000   -0.0157  138.1640
     C     31.90100000     34.91000000     22.72800000    0.0030   25.4667
     O     32.19000000     33.69600000     22.63500000   -0.2561  -43.0700
     C     29.47200000     35.18100000     23.49800000    0.0315  172.5748
     H     28.44200000     35.28300000     17.64600000    0.1182   26.8485
     H     29.80100000     33.10000000     19.17200000    0.0124   26.2962
     H     30.79800000     33.52100000     16.99100000    0.0216   30.0124
     H     30.82500000     35.29300000     17.28200000    0.0174   29.3743
     H     32.46000000     34.90800000     19.17700000    0.0368   30.1936
     H     33.56400000     32.69700000     19.30000000    0.0278   30.2119
     H     31.80600000     32.56000000     19.64400000    0.0257   30.0294
     H     32.44800000     32.06900000     18.04000000    0.0195   30.6635
     H     32.48200000     36.79100000     23.10200000    0.1181   27.1698
     H     29.93800000     33.55900000     21.31800000    0.1292   25.7805
     H     30.50500000     36.43000000     22.08400000    0.0284   26.2868
     H     29.51300000     34.11600000     23.77100000    0.0296   30.0443
     H     33.07160000     34.40330000     17.56200000    0.0153   30.0507
     H     33.69650000     35.58850000     23.35410000    0.1248   27.3564
     H     26.54180000     33.99370000     17.83310000   -0.0068   23.4854
     H     29.72350000     35.74030000     24.41120000    0.0315   30.2624
     H     28.43580000     35.37980000     23.18710000    0.0541   30.0856
