26
chgs=0 nmr=1 
     N     31.11300000     20.86300000     15.86000000   -0.1292  138.3546
     C     31.28800000     22.20100000     16.41700000    0.1353  145.4845
     C     30.52000000     22.30000000     17.76400000   -0.2042  153.6319
     C     29.00600000     22.04300000     17.44200000   -0.0124  162.5559
     C     30.83200000     23.69900000     18.35800000    0.0182  171.7844
     C     28.40700000     22.94800000     16.36600000   -0.0794  179.8502
     C     31.59300000     20.55300000     14.65500000    0.1253   42.5050
     O     32.15900000     21.31100000     13.86100000   -0.2662  -79.2573
     C     27.38000000     23.72100000     12.95500000   -0.1767  193.2206
     H     30.62600000     20.16900000     16.39000000    0.1214   27.5171
     H     30.85300000     22.93800000     15.72600000    0.0305   27.8055
     H     30.88200000     21.52100000     18.45100000    0.0172   29.7647
     H     28.90200000     21.00100000     17.10700000    0.0025   29.8227
     H     28.43100000     22.19000000     18.36800000    0.0181   29.9796
     H     30.30700000     23.81600000     19.31800000    0.0275   30.3983
     H     31.91600000     23.79500000     18.51900000    0.0309   30.3169
     H     30.49400000     24.47800000     17.65800000    0.0301   30.1526
     H     27.34900000     22.68900000     16.21600000    0.0445   30.4352
     H     28.48600000     23.99800000     16.68500000    0.0341   30.3870
     H     28.95600000     22.80900000     15.42300000    0.0566   30.0829
     H     28.35200000     24.23400000     12.99200000    0.0496   31.0980
     H     26.59400000     24.44400000     12.69300000    0.0392   31.1314
     H     27.16100000     23.28100000     13.93900000    0.0390   30.9680
     H     32.35780000     22.42960000     16.53200000    0.0308   28.5289
     H     31.45430000     19.49380000     14.39250000   -0.0274   23.5713
     H     27.41310000     22.92500000     12.19650000    0.0445   31.0452
