12
chgs=0 nmr=1 
     C     27.58800000     37.63500000      9.71500000   -0.0210  162.2598
     C     29.54200000     39.02000000     10.65300000   -0.0184  164.1684
     C     28.11300000     39.04900000     10.01500000    0.0226  120.4150
     O     27.28000000     39.72200000     10.99600000   -0.2826  269.3844
     H     26.58500000     37.70300000      9.26900000    0.0180   30.3174
     H     28.26800000     37.13300000      9.01200000    0.0228   30.2082
     H     27.53600000     37.05800000     10.65000000    0.0305   30.2015
     H     29.47700000     38.47800000     11.60800000    0.0286   30.2412
     H     28.15100000     39.62800000      9.08100000    0.0055   27.2210
     H     26.38900000     39.77600000     10.67200000    0.1444   32.0965
     H     30.00500000     40.00260000     10.82670000    0.0339   29.8792
     H     30.22710000     38.47380000      9.98800000    0.0156   30.5282
