26
chgs=0 nmr=1 
     N     26.84900000     29.65600000      6.21700000   -0.1271  141.9877
     C     26.23500000     30.05800000      7.49700000    0.1323  142.3739
     C     26.34400000     29.05000000      8.64500000   -0.1464  148.6032
     C     27.81000000     28.74800000      8.99900000   -0.0410  158.2648
     C     25.49100000     27.77100000      8.28700000    0.0081  169.6736
     C     27.96700000     28.08700000     10.41700000   -0.0327  173.1751
     C     28.47600000     25.13500000      7.70500000   -0.1802  192.7603
     C     26.10000000     29.25300000      5.20200000    0.1374   37.4738
     O     24.86500000     29.02400000      5.33000000   -0.2950  -83.8492
     H     27.84300000     29.68800000      6.11500000    0.1137   27.0575
     H     25.16500000     30.24200000      7.32000000    0.0381   26.6268
     H     25.87900000     29.50700000      9.53100000    0.0108   29.9789
     H     28.22100000     28.06200000      8.24300000    0.0085   29.9449
     H     28.37700000     29.69100000      8.98500000    0.0058   30.1421
     H     25.56300000     27.04000000      9.10600000    0.0151   30.1491
     H     24.43900000     28.06000000      8.14500000    0.0351   30.0316
     H     25.87600000     27.32100000      7.36000000    0.0380   30.4399
     H     29.03100000     27.89400000     10.61600000    0.0282   30.2526
     H     27.56800000     28.76600000     11.18400000    0.0258   30.6165
     H     27.41100000     27.13800000     10.44300000    0.0353   30.0520
     H     28.20500000     25.37800000      8.74300000    0.0470   31.0014
     H     28.41300000     26.04300000      7.08700000    0.0509   30.9824
     H     27.78300000     24.37600000      7.31300000    0.0467   30.9493
     H     26.69170000     31.02500000      7.75460000    0.0129   28.8913
     H     29.50330000     24.74270000      7.67620000    0.0416   31.0421
     H     26.64200000     29.08530000      4.25960000   -0.0090   23.2754
