33
chgs=0 nmr=1 
     C     34.17400000     22.12900000     21.35400000    0.1068   -8.0814
     O     33.54400000     23.08600000     20.88300000   -0.1628 -386.7385
     N     31.69700000     18.31100000     20.40600000    0.0411  167.7089
     C     31.28800000     22.20100000     16.41700000    0.0162  148.9721
     C     32.77600000     22.51900000     16.57700000   -0.0846   31.0028
     O     33.23300000     23.65900000     16.38400000   -0.2604  -67.9959
     C     30.52000000     22.30000000     17.76400000   -0.0828  162.9490
     C     30.83200000     23.69900000     18.35800000   -0.0439  173.3253
     C     29.94200000     21.10600000     21.24000000    0.1164   43.7139
     O     29.47000000     20.67700000     20.19000000   -0.2542  -88.7052
     N     33.54800000     21.52600000     16.95000000    0.0135  160.5172
     N     31.23300000     21.09000000     21.45900000   -0.0587  140.6579
     C     32.26200000     20.67000000     20.51400000   -0.0252  140.5136
     C     32.12800000     19.36400000     19.75000000    0.0248   27.8028
     O     32.54600000     19.31700000     18.55800000   -0.2672  -40.2878
     C     33.63800000     20.71600000     21.24200000   -0.0097  137.2898
     H     31.43900000     18.43200000     21.36400000    0.1097   27.2056
     H     30.85300000     22.93800000     15.72600000    0.0183   29.7764
     H     30.88200000     21.52100000     18.45100000    0.0406   28.6512
     H     30.30700000     23.81600000     19.31800000    0.0035   30.4646
     H     31.91600000     23.79500000     18.51900000    0.0594   29.4866
     H     30.49400000     24.47800000     17.65800000    0.0202   30.4190
     H     33.14600000     20.63400000     17.15600000    0.1037   24.9563
     H     31.54300000     21.39500000     22.36000000    0.1087   28.4249
     H     32.31500000     21.45700000     19.74700000    0.0727   25.9075
     H     33.51900000     20.30000000     22.25300000    0.0387   29.4382
     H     34.35900000     20.10600000     20.67800000    0.0716   28.5013
     H     35.12210000     22.29880000     21.88520000    0.0285   21.2704
     H     31.60950000     17.39610000     20.01200000    0.1286   27.1139
     H     31.15610000     21.19280000     15.99730000    0.0100   28.9311
     H     29.45860000     22.11980000     17.53830000    0.0192   30.0760
     H     29.26390000     21.50910000     22.00660000    0.0020   23.1602
     H     34.53630000     21.65660000     17.02930000    0.0954   27.8010
