25
chgs=0 nmr=1 
     N     32.76300000     35.83100000     23.09000000   -0.0714  119.1736
     C     34.14500000     35.47200000     23.48100000   -0.0585  134.7943
     C     34.23900000     35.35300000     24.97900000   -0.0302   29.7860
     O     33.70700000     36.19700000     25.72800000   -0.2548  -33.9344
     C     35.11400000     36.56400000     22.90700000    0.1223  140.7930
     C     35.92600000     35.97900000     21.73700000   -0.2350  159.6831
     C     35.00300000     35.08400000     20.92000000    0.0560  165.2997
     C     36.53300000     37.08700000     20.91700000    0.0332  165.2782
     N     34.93000000     34.38400000     25.45100000    0.0637  171.8104
     C     31.90100000     34.91000000     22.72800000    0.1327   42.2024
     O     32.19000000     33.69600000     22.63500000   -0.2964  -70.9935
     H     32.48200000     36.79100000     23.10200000    0.1212   26.7846
     H     34.41100000     34.50500000     23.02800000    0.0350   25.5217
     H     34.52600000     37.42200000     22.55000000    0.0020   30.5534
     H     35.80200000     36.89500000     23.69900000    0.0285   29.1071
     H     36.73600000     35.36100000     22.15200000    0.0065   29.9970
     H     35.56200000     34.65300000     20.07600000    0.0187   30.4983
     H     34.62000000     34.27400000     21.55700000    0.0292   28.4295
     H     34.16100000     35.67900000     20.53700000    0.0107   30.7833
     H     37.11000000     36.65500000     20.08600000    0.0241   30.0862
     H     35.73300000     37.72600000     20.51500000    0.0182   30.8616
     H     37.20000000     37.68900000     21.55100000    0.0232   30.1107
     H     35.33500000     33.73400000     24.80800000    0.1074   27.3729
     H     35.08630000     34.24190000     26.42840000    0.1196   27.5007
     H     30.88240000     35.23880000     22.47440000   -0.0060   23.4264
