13
chgs=0 nmr=1 
     C     21.86100000     31.34200000      3.47400000   -0.0297  172.1926
     C     21.15600000     30.72600000      2.31100000   -0.0145   33.8145
     O     19.94200000     30.79300000      2.17000000   -0.2304  -52.5753
     O     21.95400000     30.15200000      1.53500000   -0.0397  157.7301
     C     20.26800000     26.58900000      1.65600000   -0.1762  194.2116
     H     22.03900000     32.40600000      3.26000000    0.0656   29.3798
     H     22.82400000     30.83100000      3.61900000    0.0384   29.6304
     H     21.47300000     29.77100000      0.81000000    0.1620   26.4797
     H     20.17600000     27.66100000      1.42700000    0.0282   31.1583
     H     21.24600000     26.22300000      1.31100000    0.0378   31.1817
     H     21.27000000     31.25810000      4.39790000    0.0575   29.5962
     H     20.22630000     26.46960000      2.74870000    0.0516   30.9354
     H     19.48750000     26.05310000      1.09590000    0.0496   30.9222
