10
chgs=0 nmr=1 
     C     36.35100000     33.61300000      7.83800000   -0.0648  171.6080
     C     36.32200000     32.94400000      6.47700000    0.0224  149.5253
     N     35.76800000     33.94500000      5.48900000   -0.2361  227.5666
     H     35.32500000     33.67300000      8.23000000    0.0223   30.3424
     H     36.76200000     34.62700000      7.73100000    0.0358   30.1166
     H     37.34000000     32.64900000      6.18200000    0.0217   28.9414
     H     35.67700000     32.05300000      6.51000000    0.0049   28.2299
     H     35.73600000     33.53300000      4.57900000    0.0844   31.4738
     H     34.84500000     34.21200000      5.76700000    0.0848   32.1712
     H     36.97340000     33.04650000      8.54630000    0.0246   30.2022
