25
chgs=0 nmr=1 
     N     29.69400000     29.43600000     21.05400000   -0.0882  123.7041
     C     28.76200000     29.57300000     19.90600000    0.0293  138.4314
     C     27.33100000     29.31700000     20.36400000    0.0266   27.9294
     O     27.10100000     28.34600000     21.09700000   -0.2386  -43.8011
     C     29.15100000     28.65500000     18.75500000    0.0291  143.8881
     C     30.41600000     28.91200000     17.98000000   -0.1343  164.4275
     C     30.73800000     27.69300000     17.12200000    0.0245  162.7102
     C     30.20500000     30.16800000     17.12900000   -0.0002  165.8377
     C     30.21000000     30.50900000     21.65000000    0.1432   31.4954
     O     29.97800000     31.72600000     21.26900000   -0.3258 -115.7201
     N     26.43600000     30.23200000     20.00400000   -0.0069  167.9389
     H     29.93800000     28.52400000     21.38400000    0.1222   26.5694
     H     28.81600000     30.60900000     19.54100000    0.0085   26.3787
     H     29.23500000     27.64100000     19.17300000    0.0084   29.6331
     H     28.32300000     28.68600000     18.03100000    0.0040   30.4358
     H     31.24500000     29.08800000     18.68100000    0.0069   30.0480
     H     31.66200000     27.87700000     16.55400000    0.0247   30.1011
     H     30.87500000     26.81500000     17.77000000    0.0228   30.3541
     H     29.90900000     27.50700000     16.42300000    0.0183   30.6470
     H     31.11700000     30.37800000     16.55200000    0.0243   30.2427
     H     29.36400000     30.00600000     16.43900000    0.0126   31.1516
     H     29.98200000     31.02200000     17.78500000    0.0378   29.7353
     H     26.73800000     30.99700000     19.43500000    0.1189   27.1527
     H     30.92970000     30.37810000     22.47150000    0.0104   22.8426
     H     25.47470000     30.18950000     20.27620000    0.1215   27.6754
