11
chgs=0 nmr=1 
     C     31.82700000     27.26200000      2.89400000   -0.0545  177.2527
     C     31.36300000     28.41000000      1.96200000   -0.0529  161.9965
     C     31.67100000     28.29100000      0.49800000    0.0088   31.8512
     O     30.86900000     28.62100000     -0.36600000   -0.2187  -62.5111
     O     32.83500000     27.86100000      0.27800000   -0.0430  165.6098
     H     32.92200000     27.30900000      2.98900000    0.0370   30.0871
     H     31.53900000     26.30300000      2.43900000    0.0343   30.3013
     H     30.27100000     28.49200000      2.06200000    0.0417   29.1564
     H     31.83500000     29.33600000      2.32200000    0.0537   29.1456
     H     32.99100000     27.83300000     -0.65900000    0.1580   26.5008
     H     31.38500000     27.31950000      3.89960000    0.0357   30.3463
