32
chgs=0 nmr=1 
     N     20.71700000     22.96400000     12.26000000   -0.0868  133.5982
     C     21.18400000     24.26300000     11.69000000    0.0312  127.1579
     C     21.11000000     24.11100000     10.17300000    0.0038   24.3924
     O     21.84100000     23.19800000      9.68600000   -0.2886  -42.6903
     C     22.65000000     24.51600000     12.17200000   -0.0352  158.1810
     C     22.66200000     24.81900000     13.69900000   -0.0175  174.2074
     N     24.24000000     19.23300000     12.24600000   -0.0627  160.2314
     N     20.29100000     24.87500000      9.50700000    0.0459  167.9213
     C     20.14200000     21.59000000     15.14900000    0.1447   38.6960
     O     19.49900000     22.64500000     15.32100000   -0.2771 -108.2051
     O     23.26400000     20.95100000     13.32900000   -0.2371  -42.2949
     N     19.99300000     20.88400000     14.04900000   -0.1221  149.0019
     C     19.06500000     21.35200000     12.99900000    0.1609  144.1008
     C     24.24100000     20.43600000     12.85700000    0.1106   44.5020
     O     18.57100000     23.61000000     12.28900000   -0.2671  -60.0865
     C     19.44200000     22.74500000     12.51000000   -0.0022   34.2364
     H     21.38500000     22.24600000     12.45600000    0.1134   26.0922
     H     20.53700000     25.08800000     12.02200000    0.0085   27.5609
     H     23.21600000     23.58600000     12.01300000    0.0250   29.4914
     H     22.10700000     25.74900000     13.89000000    0.0235   30.6082
     H     22.18400000     23.98900000     14.23900000    0.0389   29.9829
     H     25.09100000     18.79700000     11.95400000    0.1267   27.0995
     H     19.77500000     25.56800000     10.01100000    0.1213   26.9098
     H     20.50600000     20.03400000     13.92400000    0.1056   26.6688
     H     19.16200000     20.67100000     12.14100000    0.0296   28.3360
     H     23.16720000     25.32030000     11.62840000    0.0174   29.9086
     H     23.69790000     24.93390000     14.05070000    0.0196   30.4832
     H     23.35340000     18.79510000     12.09710000    0.1178   27.4727
     H     20.15030000     24.80670000      8.51930000    0.1157   27.5138
     H     20.82360000     21.26920000     15.95060000   -0.0052   22.7828
     H     18.01610000     21.30240000     13.32660000    0.0426   27.7746
     H     25.21610000     20.92100000     13.01190000   -0.0012   23.4584
