19
chgs=0 nmr=1 
     C     37.15600000     35.98500000     11.68800000   -0.1772  188.3126
     C     32.99500000     35.88300000      9.93400000   -0.0588  162.9511
     C     33.30600000     34.38100000      9.84000000   -0.0464  164.7898
     C     33.10900000     36.38100000     11.43500000   -0.0637  175.3986
     C     34.53500000     34.02800000     10.72000000   -0.0783  169.6720
     H     37.25300000     35.21500000     10.90800000    0.0578   30.7678
     H     36.19400000     35.86100000     12.20700000    0.0505   30.7643
     H     33.82000000     36.38500000      9.40700000    0.0113   30.1100
     H     32.43400000     33.80800000     10.18800000    0.0173   30.1205
     H     33.52200000     34.12000000      8.79300000    0.0171   29.8591
     H     34.05800000     36.03000000     11.86700000    0.0323   29.1295
     H     33.08000000     37.48000000     11.46000000    0.0236   30.4103
     H     32.26900000     35.97900000     12.02000000    0.0276   30.7728
     H     34.74500000     32.95100000     10.64200000    0.0196   30.2335
     H     35.41000000     34.59800000     10.37300000    0.0288   30.2471
     H     34.32100000     34.28500000     11.76800000    0.0362   29.5251
     H     37.97230000     35.86190000     12.41500000    0.0379   30.8332
     H     37.18200000     36.97790000     11.21530000    0.0448   30.7764
     H     32.08300000     36.17340000      9.39180000    0.0196   29.8221
