27
chgs=0 nmr=1 
     N     34.73400000     25.82200000     14.94900000   -0.0006  167.4031
     N     35.13900000     21.62400000     14.66200000   -0.0921  132.9059
     C     35.59000000     21.94500000     13.30200000    0.0373  134.8280
     C     35.23800000     23.38200000     12.92000000    0.0277   31.3465
     O     36.06600000     24.10900000     12.33300000   -0.1957 -114.4101
     C     35.06400000     20.95700000     12.25500000    0.0490  150.6681
     C     35.54100000     21.41800000     10.87100000   -0.0273   31.0798
     O     36.77200000     21.62300000     10.67600000   -0.2312  -92.1200
     N     34.62800000     21.59500000      9.92000000   -0.0001  160.8054
     N     34.00700000     23.74500000     13.25000000   -0.1169  160.6174
     C     33.53300000     25.09700000     12.97800000    0.1403  144.9904
     C     34.44100000     26.09900000     13.68400000   -0.0590   36.1101
     O     34.88300000     27.09000000     13.09300000   -0.2111  -82.7760
     C     35.61500000     22.19000000     15.75900000    0.1180   40.1716
     O     36.53200000     23.04600000     15.72400000   -0.2652 -113.0545
     H     34.36300000     24.99500000     15.37200000    0.0942   27.5990
     H     34.42500000     20.93200000     14.76600000    0.1059   27.3047
     H     36.68700000     21.87000000     13.28900000    0.0625   26.5324
     H     35.45300000     19.95000000     12.46600000    0.0598   28.8076
     H     33.96400000     20.93800000     12.28200000   -0.0237   29.9162
     H     34.90700000     21.90100000      9.01000000    0.1315   27.3651
     H     33.66300000     21.42200000     10.11500000    0.1073   27.3021
     H     33.39700000     23.08600000     13.69000000    0.0907   26.6735
     H     33.61300000     25.28200000     11.89700000    0.0385   27.7760
     H     35.32050000     26.42960000     15.48450000    0.1262   27.6877
     H     32.47480000     25.21190000     13.25530000    0.0383   28.3298
     H     35.18920000     21.84880000     16.71410000   -0.0042   23.2012
