28
chgs=0 nmr=1 
     C     28.76200000     29.57300000     19.90600000   -0.0038  176.4609
     C     26.31000000     30.59400000     14.96700000   -0.0489  171.5044
     C     27.39300000     28.44200000     14.22900000   -0.0690  168.7732
     C     29.15100000     28.65500000     18.75500000   -0.0495  153.7059
     C     30.41600000     28.91200000     17.98000000   -0.1550  160.1639
     C     30.73800000     27.69300000     17.12200000    0.0147  162.0285
     C     30.20500000     30.16800000     17.12900000    0.0004  166.7125
     C     26.29000000     29.48000000     13.96000000   -0.0837  170.9334
     H     28.81600000     30.60900000     19.54100000    0.0103   30.2061
     H     27.23500000     31.16400000     14.79900000    0.0254   30.3289
     H     26.34200000     30.12800000     15.96300000    0.0212   30.5388
     H     27.34200000     27.64700000     13.47100000    0.0275   29.9955
     H     28.37700000     28.93200000     14.18100000    0.0367   30.2936
     H     27.24900000     28.00500000     15.22800000    0.0343   30.4522
     H     29.23500000     27.64100000     19.17300000    0.0031   29.7690
     H     28.32300000     28.68600000     18.03100000    0.0069   30.4441
     H     31.24500000     29.08800000     18.68100000    0.0039   30.2203
     H     31.66200000     27.87700000     16.55400000    0.0170   30.1945
     H     30.87500000     26.81500000     17.77000000    0.0197   30.3424
     H     29.90900000     27.50700000     16.42300000    0.0191   30.6022
     H     31.11700000     30.37800000     16.55200000    0.0153   30.3411
     H     29.36400000     30.00600000     16.43900000    0.0205   30.9388
     H     29.98200000     31.02200000     17.78500000    0.0216   29.7352
     H     26.46700000     29.91100000     12.96300000    0.0195   29.9800
     H     29.45240000     29.47150000     20.75640000    0.0218   30.5749
     H     27.72920000     29.38820000     20.23650000    0.0251   30.2893
     H     25.48190000     31.31800000     14.97630000    0.0257   30.1487
     H     25.30590000     28.98870000     13.95420000    0.0202   30.0391
