16
chgs=0 nmr=1 
     C     41.65100000     32.52900000     29.92300000   -0.0549  171.8132
     C     41.60800000     31.44400000     30.98900000   -0.0335  164.6408
     C     41.89600000     30.08000000     30.45600000    0.0838  139.7692
     N     43.31100000     29.73500000     30.56300000   -0.1050  156.3212
     C     44.17400000     29.90500000     29.55400000   -0.0243   40.1130
     N     45.47700000     29.72600000     29.76300000   -0.2268   27.0712
     H     41.23700000     32.10900000     28.99400000    0.0165   30.9434
     H     42.70300000     32.80600000     29.76300000    0.0380   29.7651
     H     42.35500000     31.68200000     31.76000000    0.0229   30.0556
     H     40.60500000     31.43800000     31.44000000    0.0133   29.8952
     H     41.30800000     29.34500000     31.02600000    0.0193   28.0073
     H     41.60100000     30.04400000     29.39700000    0.0191   28.8508
     H     43.64900000     29.35700000     31.42500000    0.1139   27.3794
     H     46.01900000     29.93000000     28.94800000    0.0795   24.2792
     H     41.09090000     33.44540000     30.16060000    0.0330   30.1608
     H     43.82740000     30.24080000     28.56550000    0.0052   23.3097
