30
chgs=0 nmr=1 
     N     41.18900000     32.08500000     19.03100000   -0.3005  118.1477
     C     41.46100000     30.75100000     19.59400000    0.1867  142.5828
     C     42.19500000     31.14200000     20.91300000   -0.0889  159.5576
     C     42.90400000     32.41400000     20.55300000   -0.0419  162.8487
     N     41.31700000     34.39300000     13.43200000   -0.1305  151.5324
     C     42.34500000     34.26900000     14.43100000    0.1547  151.0126
     C     41.94900000     34.07600000     15.84200000    0.0208   29.8298
     O     42.82900000     34.00000000     16.73900000   -0.2792  -38.6033
     C     41.82200000     33.18800000     19.81300000    0.1246  135.7954
     N     40.64200000     33.91600000     16.11200000   -0.0970  139.2712
     C     40.22600000     33.71600000     17.50900000    0.1389  145.2200
     C     40.44900000     32.27800000     17.94500000    0.0513   33.5027
     O     39.93600000     31.33600000     17.31500000   -0.2723  -59.5288
     C     40.67500000     35.52700000     13.20000000    0.1104   41.9068
     O     40.81400000     36.52800000     13.91100000   -0.2619  -94.4172
     H     42.11200000     30.14800000     18.94400000    0.0376   28.1675
     H     41.47600000     31.30900000     21.72900000    0.0264   29.7309
     H     42.91200000     30.36200000     21.21000000    0.0254   29.3674
     H     43.23600000     32.95400000     21.45200000    0.0223   29.6357
     H     43.76900000     32.21800000     19.90300000    0.0418   29.6365
     H     41.07700000     33.58800000     12.89000000    0.1213   27.3115
     H     42.96700000     33.40700000     14.14900000    0.0529   28.2194
     H     42.95000000     35.18700000     14.38800000    0.0628   27.0445
     H     41.10900000     33.65500000     20.50800000    0.0234   28.3320
     H     42.25100000     33.95800000     19.15500000    0.0669   26.0645
     H     39.96500000     33.93300000     15.37700000    0.1113   25.4761
     H     40.79400000     34.38800000     18.16900000    0.0303   26.4818
     H     40.52370000     30.22540000     19.82890000    0.0328   27.8887
     H     39.16150000     33.98680000     17.56870000    0.0349   28.5042
     H     39.94580000     35.54160000     12.37660000   -0.0052   23.1309
