19
chgs=0 nmr=1 
     N     38.88300000     30.11000000     13.71300000   -0.0932  129.1680
     C     40.26900000     30.50800000     14.11500000    0.0232  128.3767
     C     41.09200000     30.80800000     12.85100000   -0.0234   29.6702
     O     41.82800000     31.80800000     12.68100000   -0.2247  -83.9691
     C     40.99600000     29.39900000     14.86500000   -0.0554  161.9647
     C     42.44500000     29.84800000     15.18200000   -0.0253  175.7589
     C     38.14800000     30.98100000     13.06900000    0.1336   40.6284
     O     38.54400000     32.15000000     12.85600000   -0.2650 -114.0942
     N     41.00100000     29.87800000     11.93100000    0.0124  174.4528
     H     38.52700000     29.20100000     13.93100000    0.1087   26.9055
     H     40.23000000     31.41000000     14.74400000    0.0412   27.5142
     H     40.46600000     29.18400000     15.80400000    0.0308   29.6990
     H     41.02200000     28.49200000     14.24300000    0.0049   30.2308
     H     43.02100000     29.92200000     14.24800000    0.0590   30.0363
     H     42.42600000     30.82900000     15.68000000    0.0447   30.3113
     H     40.44300000     29.06500000     12.10000000    0.0896   27.2334
     H     42.91390000     29.10660000     15.84570000    0.0281   30.3075
     H     37.13260000     30.68650000     12.76520000   -0.0103   23.1898
     H     41.48510000     29.97520000     11.06140000    0.1210   27.6381
