20
chgs=0 nmr=1 
     N     35.13900000     21.62400000     14.66200000   -0.0921  134.8599
     C     35.59000000     21.94500000     13.30200000    0.0102  135.1742
     C     35.23800000     23.38200000     12.92000000   -0.0077   31.8015
     O     36.06600000     24.10900000     12.33300000   -0.2030  -98.8193
     C     35.06400000     20.95700000     12.25500000    0.0483  150.8266
     C     35.54100000     21.41800000     10.87100000   -0.0270   30.8277
     O     36.77200000     21.62300000     10.67600000   -0.2331  -90.9106
     N     34.62800000     21.59500000      9.92000000   -0.0007  161.0585
     N     34.00700000     23.74500000     13.25000000    0.0004  174.4257
     C     35.61500000     22.19000000     15.75900000    0.1282   40.3417
     O     36.53200000     23.04600000     15.72400000   -0.2640 -115.7290
     H     34.42500000     20.93200000     14.76600000    0.1032   27.4519
     H     36.68700000     21.87000000     13.28900000    0.0613   26.5800
     H     35.45300000     19.95000000     12.46600000    0.0596   28.8034
     H     33.96400000     20.93800000     12.28200000   -0.0239   29.8898
     H     34.90700000     21.90100000      9.01000000    0.1291   27.3896
     H     33.66300000     21.42200000     10.11500000    0.1068   27.2757
     H     33.39700000     23.08600000     13.69000000    0.0914   27.1907
     H     33.68200000     24.67210000     13.06350000    0.1209   27.8119
     H     35.18920000     21.84880000     16.71410000   -0.0080   23.2195
