23
chgs=0 nmr=1 
     N     38.88300000     30.11000000     13.71300000   -0.0904  129.3330
     C     40.26900000     30.50800000     14.11500000    0.0335  129.2273
     C     41.09200000     30.80800000     12.85100000   -0.0249   29.2017
     O     41.82800000     31.80800000     12.68100000   -0.2294  -76.9618
     C     40.99600000     29.39900000     14.86500000   -0.0259  156.1843
     C     42.44500000     29.84800000     15.18200000   -0.0035  154.3374
     C     43.09000000     28.82800000     16.09500000   -0.0394   31.3538
     O     42.77000000     27.65500000     15.90600000   -0.2423  -49.4339
     N     43.89800000     29.25200000     17.05000000    0.0079  169.1046
     C     38.14800000     30.98100000     13.06900000    0.1345   40.5204
     O     38.54400000     32.15000000     12.85600000   -0.2664 -112.3854
     N     41.00100000     29.87800000     11.93100000    0.0157  173.4148
     H     38.52700000     29.20100000     13.93100000    0.1114   26.8453
     H     40.23000000     31.41000000     14.74400000    0.0360   27.5336
     H     40.46600000     29.18400000     15.80400000    0.0323   29.7619
     H     41.02200000     28.49200000     14.24300000    0.0228   29.4426
     H     43.02100000     29.92200000     14.24800000    0.0743   28.8701
     H     42.42600000     30.82900000     15.68000000    0.0139   29.7019
     H     44.30200000     28.59800000     17.69000000    0.1196   27.6364
     H     44.10600000     30.22700000     17.13300000    0.1171   27.1539
     H     40.44300000     29.06500000     12.10000000    0.0922   27.1703
     H     37.13260000     30.68650000     12.76520000   -0.0099   23.1953
     H     41.48510000     29.97520000     11.06140000    0.1210   27.6432
