31
chgs=0 nmr=1 
     N     23.14100000     29.18700000     19.24100000   -0.1267  127.4865
     C     22.12600000     29.06200000     18.18300000   -0.0031  130.4676
     C     20.83500000     28.62900000     18.90400000   -0.0060   32.9612
     O     20.82100000     27.73400000     19.74900000   -0.2287   -6.0244
     C     22.49400000     28.05700000     17.10900000    0.1468  147.2076
     C     21.44700000     27.86900000     16.02600000   -0.0594   58.1589
     C     21.32500000     28.81300000     15.00500000   -0.0187   66.6796
     C     20.63800000     26.73500000     16.05300000   -0.0049   64.0423
     C     20.36900000     28.64800000     14.00100000    0.0184   64.8661
     C     19.67700000     26.53900000     15.05100000    0.0219   66.0885
     C     19.59300000     27.46500000     14.02100000    0.0100   67.1950
     N     19.81000000     29.37800000     18.57800000    0.0169  161.9047
     C     24.94200000     28.80700000     13.95200000   -0.1745  192.4717
     C     24.10100000     30.14900000     19.19600000    0.1426   44.3753
     O     24.19600000     30.94800000     18.28700000   -0.2516  -58.7143
     H     23.12400000     28.54900000     20.01100000    0.1208   26.5011
     H     21.95700000     30.04300000     17.71400000    0.0135   27.1699
     H     23.42500000     28.39400000     16.63000000    0.0335   28.0453
     H     22.66300000     27.08400000     17.59400000    0.0096   28.8170
     H     21.97400000     29.67600000     14.99200000   -0.0132   24.0906
     H     20.75100000     26.00800000     16.84400000   -0.0147   24.3891
     H     20.22700000     29.39700000     13.23600000   -0.0127   24.0596
     H     19.01600000     25.68500000     15.08000000   -0.0129   24.2038
     H     18.91100000     27.27600000     13.20500000   -0.0119   24.4553
     H     19.96200000     30.14700000     17.95600000    0.1187   27.6787
     H     24.94200000     27.99400000     13.21100000    0.0418   31.2454
     H     24.73300000     28.39300000     14.95000000    0.0493   30.9744
     H     24.16700000     29.54200000     13.69000000    0.0445   30.9407
     H     18.88390000     29.21880000     18.92010000    0.1174   28.0677
     H     25.92610000     29.29830000     13.95780000    0.0446   30.9766
     H     24.77440000     30.16420000     20.06570000   -0.0116   23.4641
