29
chgs=0 nmr=1 
     N     30.79500000     37.01500000     10.09500000   -0.1065  120.5054
     C     31.72000000     36.28900000      9.17600000    0.0583  142.3627
     C     30.95500000     35.21100000      8.45900000    0.0223   30.9071
     O     30.02500000     34.61800000      9.04000000   -0.2734  -50.9119
     C     32.99500000     35.88300000      9.93400000   -0.0186  164.4024
     C     33.30600000     34.38100000      9.84000000   -0.0289  178.4031
     N     30.88400000     31.48500000      6.66600000    0.0130  164.3787
     C     30.50500000     33.88400000      6.51200000   -0.0197  138.5546
     O     30.84900000     38.85000000      8.70600000   -0.2732  -52.5998
     N     31.24400000     34.98600000      7.19700000   -0.0612  122.9171
     C     30.49400000     38.26100000      9.72900000    0.1386   44.7308
     C     31.40900000     32.68000000      6.44600000    0.0209   23.0829
     O     32.61900000     32.81200000      6.12500000   -0.2675  -54.0190
     C     30.09100000     34.39300000      5.07800000    0.0139  166.9294
     H     30.42700000     36.59700000     10.92600000    0.1229   26.0633
     H     32.03600000     37.01200000      8.41000000    0.0196   25.7559
     H     33.82000000     36.38500000      9.40700000    0.0213   29.1517
     H     32.43400000     33.80800000     10.18800000    0.0371   30.3179
     H     33.52200000     34.12000000      8.79300000    0.0361   30.2241
     H     29.90500000     31.41600000      6.85800000    0.1141   27.1115
     H     29.59500000     33.63500000      7.07700000    0.0281   26.1242
     H     31.93100000     35.53000000      6.71500000    0.1210   26.2037
     H     29.47000000     33.64700000      4.56000000    0.0365   30.1185
     H     33.07410000     36.22850000     10.97530000    0.0197   30.1213
     H     34.17690000     34.13080000     10.46360000    0.0268   30.6579
     H     31.43200000     30.64880000      6.64730000    0.1240   27.2873
     H     29.80890000     38.80720000     10.39400000   -0.0160   23.5549
     H     31.09520000     34.48230000      4.63800000    0.0349   29.5477
     H     29.60530000     35.37950000      5.10770000    0.0557   30.0709
