38
chgs=0 nmr=1 
     C     24.62000000     34.77800000      4.85300000    0.0148   70.6405
     N     28.26000000     33.94300000     11.09600000    0.0039  171.3168
     C     22.50400000     31.22800000     10.13600000    0.1044   44.2282
     O     23.57900000     31.32100000      9.55400000   -0.2483  -37.4614
     N     22.24100000     31.87300000     11.24100000   -0.0184  161.8252
     C     26.23500000     30.05800000      7.49700000   -0.0219  152.3318
     C     26.88200000     31.42800000      7.86200000   -0.0128   33.9267
     O     27.90600000     31.71100000      7.26400000   -0.2452  -25.7215
     C     26.34400000     29.05000000      8.64500000   -0.0304  175.7521
     N     26.21400000     32.09700000      8.77100000   -0.0870  140.3434
     C     26.77200000     33.43600000      9.19700000    0.0300  131.7400
     C     27.15100000     33.36200000     10.65000000    0.0175   25.3775
     O     26.35000000     32.77800000     11.39500000   -0.2573  -53.5677
     C     25.69500000     34.49800000      8.94600000    0.1166  144.8611
     C     25.28800000     34.60900000      7.49900000   -0.0163   55.1359
     C     24.14700000     33.96600000      7.03800000    0.0041   64.6104
     C     26.13600000     35.34600000      6.64000000    0.0073   61.5314
     C     23.81200000     34.03100000      5.67700000    0.0241   68.9592
     C     25.81000000     35.39200000      5.26700000    0.0250   64.4760
     H     24.31900000     34.89900000      3.82300000   -0.0195   24.6810
     H     28.87600000     34.37900000     10.44000000    0.1147   27.1207
     H     21.34100000     31.75600000     11.66200000    0.1215   27.3691
     H     25.16500000     30.24200000      7.32000000    0.0110   29.2427
     H     25.87900000     29.50700000      9.53100000    0.0193   30.1982
     H     25.36900000     31.73600000      9.16600000    0.1233   23.0334
     H     27.66100000     33.67200000      8.59400000    0.0027   26.8286
     H     24.80600000     34.23900000      9.53900000   -0.0016   28.7431
     H     26.08400000     35.47300000      9.27400000   -0.0009   28.6791
     H     23.51900000     33.41800000      7.72500000   -0.0353   24.3900
     H     27.00600000     35.85800000      7.02300000   -0.0325   24.1510
     H     22.94800000     33.51100000      5.29000000   -0.0218   24.3611
     H     26.45800000     35.88500000      4.55700000   -0.0165   24.1578
     H     28.49810000     33.95820000     12.06710000    0.1182   27.5439
     H     21.73270000     30.53490000      9.76920000    0.0023   23.4521
     H     22.90230000     32.47850000     11.68370000    0.1379   26.5939
     H     26.69280000     29.75830000      6.54270000    0.0173   29.9374
     H     27.39250000     28.83400000      8.89820000    0.0280   30.3702
     H     25.74960000     28.15870000      8.39550000    0.0216   30.3364
