14
chgs=0 nmr=1 
     C     37.15600000     35.98500000     11.68800000   -0.0144  154.6645
     C     37.19200000     37.36100000     11.03300000    0.0031   31.8922
     O     37.51900000     38.36000000     11.64500000   -0.2136  -32.2065
     O     36.86100000     37.32000000      9.82200000   -0.0295  159.4319
     C     39.67600000     35.54700000     12.07200000   -0.0386  173.3487
     C     38.29000000     35.81400000     12.69800000   -0.0733  166.3174
     H     37.25300000     35.21500000     10.90800000    0.0211   29.5992
     H     36.19400000     35.86100000     12.20700000    0.0501   29.1226
     H     36.90400000     38.19400000      9.45200000    0.1557   26.3912
     H     39.91600000     36.39600000     11.41500000    0.0266   30.5431
     H     38.04100000     34.96600000     13.35300000    0.0128   29.9616
     H     38.35600000     36.73400000     13.29800000    0.0387   29.2272
     H     39.66000000     34.62450000     11.47300000    0.0262   30.6408
     H     40.40520000     35.53240000     12.89540000    0.0352   30.1651
