42
chgs=0 nmr=1 
     C     29.27900000     23.22700000      5.64100000    0.1161   42.1355
     O     28.47800000     23.52200000      4.72500000   -0.2872  -54.7967
     N     29.38000000     22.05700000      6.23200000   -0.0681  131.1356
     C     28.46800000     20.94000000      5.98000000    0.0004  142.7010
     C     27.81900000     20.60900000      7.31600000    0.0536   33.5272
     O     28.44900000     20.67400000      8.36000000   -0.2297  -37.6133
     C     29.21300000     19.69700000      5.50600000    0.0050  160.3096
     C     29.72800000     19.75500000      4.06000000    0.0209  151.1301
     C     28.75400000     20.06100000      2.97800000    0.0925   -3.4398
     O     27.54600000     19.99200000      2.98500000   -0.1741 -300.8227
     N     26.55900000     20.22000000      7.28800000   -0.2797  125.8092
     C     25.82900000     19.82500000      8.49400000    0.0769  127.7801
     C     26.54100000     18.73200000      9.25100000    0.0477   32.2157
     O     26.33300000     18.53600000     10.45700000   -0.2526  -51.4242
     C     24.46900000     19.33200000      7.95200000    0.0225  155.4662
     C     24.29900000     20.13400000      6.70400000   -0.0106  161.8856
     C     25.71400000     20.10800000      6.07300000    0.1137  135.4315
     N     27.36100000     17.95900000      8.55900000   -0.1330  163.7488
     C     28.05400000     16.83500000      9.21000000    0.1244  149.3127
     C     28.52300000     15.82000000      8.18200000    0.1049  129.9397
     O     28.94600000     16.44500000      6.96700000   -0.2942  314.7797
     H     30.12100000     21.92300000      6.89000000    0.1170   26.9230
     H     27.69800000     21.22000000      5.24600000    0.0498   25.5658
     H     30.07700000     19.54500000      6.16900000    0.0225   30.2123
     H     28.53000000     18.83800000      5.59000000    0.0273   29.2151
     H     30.51000000     20.52800000      4.02300000    0.0383   28.6392
     H     30.17100000     18.77400000      3.83200000    0.0548   29.1962
     H     25.66900000     20.69300000      9.15000000    0.0363   27.4009
     H     24.49800000     18.25500000      7.73000000    0.0133   29.7489
     H     23.65900000     19.53700000      8.66800000    0.0429   28.9227
     H     23.56000000     19.67000000      6.03400000    0.0298   29.3833
     H     23.98900000     21.16400000      6.93600000    0.0358   29.5088
     H     25.90100000     19.16700000      5.53500000    0.0344   27.7332
     H     25.87000000     20.95700000      5.39100000    0.0674   27.1036
     H     27.51100000     18.13900000      7.58700000    0.1244   26.0403
     H     27.36300000     16.33700000      9.90600000    0.0434   27.7255
     H     29.36700000     15.25300000      8.60200000    0.0166   27.4098
     H     27.69400000     15.13200000      7.95800000    0.0128   27.5385
     H     29.23100000     15.78000000      6.35100000    0.1628   32.0590
     H     30.00160000     23.95610000      6.03630000   -0.0137   23.7251
     H     29.25650000     20.37350000      2.05070000   -0.0025   21.6969
     H     28.93070000     17.18670000      9.77360000    0.0373   28.2049
