27
chgs=0 nmr=1 
     N     26.84900000     29.65600000      6.21700000   -0.0803  132.0473
     C     26.23500000     30.05800000      7.49700000   -0.0212  127.1939
     C     26.88200000     31.42800000      7.86200000   -0.0013   32.6684
     O     27.90600000     31.71100000      7.26400000   -0.2152  -32.0779
     C     26.34400000     29.05000000      8.64500000   -0.1318  152.3181
     C     27.81000000     28.74800000      8.99900000   -0.0007  173.5715
     C     25.49100000     27.77100000      8.28700000    0.0325  164.6356
     C     26.10000000     29.25300000      5.20200000    0.1387   38.0839
     O     24.86500000     29.02400000      5.33000000   -0.2976  -73.5399
     N     26.21400000     32.09700000      8.77100000    0.0209  174.2517
     C     21.90700000     30.56300000      5.88100000   -0.1685  193.6736
     H     27.84300000     29.68800000      6.11500000    0.1207   26.0279
     H     25.16500000     30.24200000      7.32000000    0.0414   26.4339
     H     25.87900000     29.50700000      9.53100000   -0.0057   29.5713
     H     28.22100000     28.06200000      8.24300000    0.0206   30.7337
     H     28.37700000     29.69100000      8.98500000    0.0337   30.2438
     H     25.56300000     27.04000000      9.10600000    0.0185   30.3360
     H     24.43900000     28.06000000      8.14500000    0.0300   29.8794
     H     25.87600000     27.32100000      7.36000000    0.0389   30.1966
     H     25.36900000     31.73600000      9.16600000    0.1255   26.8799
     H     22.89500000     31.02900000      5.75500000    0.0334   31.1294
     H     27.91980000     28.28560000      9.99100000    0.0285   30.4561
     H     26.64200000     29.08530000      4.25960000   -0.0039   23.2986
     H     26.58310000     32.98270000      9.05280000    0.1205   27.5726
     H     22.05370000     29.49340000      5.67010000    0.0659   30.3822
     H     21.58370000     30.84890000      6.89280000    0.0259   31.1778
     H     21.28200000     31.02960000      5.10540000    0.0304   31.1870
