36
chgs=0 nmr=1 
     N     28.26000000     33.94300000     11.09600000    0.0115  165.7191
     C     22.50400000     31.22800000     10.13600000    0.1432   46.4583
     O     23.57900000     31.32100000      9.55400000   -0.2810  -16.6333
     N     22.24100000     31.87300000     11.24100000   -0.0588  130.3607
     C     23.21200000     32.76200000     11.89100000    0.0508  130.1419
     C     23.50900000     32.22400000     13.29000000   -0.0222   25.4136
     O     22.54400000     31.94200000     14.03400000   -0.2613  -50.6944
     C     22.69900000     34.26700000     11.98500000    0.0655  110.2614
     O     22.49500000     34.69000000     10.58900000   -0.2673  270.5719
     C     23.72700000     35.13100000     12.72200000    0.0028  167.3476
     N     24.79000000     32.02100000     13.61800000    0.0023  154.9677
     C     26.88200000     31.42800000      7.86200000    0.1096   47.6654
     O     27.90600000     31.71100000      7.26400000   -0.2755  -26.0828
     N     26.21400000     32.09700000      8.77100000   -0.0955  128.6243
     C     26.77200000     33.43600000      9.19700000   -0.0133  141.2046
     C     27.15100000     33.36200000     10.65000000    0.0410   22.6122
     O     26.35000000     32.77800000     11.39500000   -0.2525  -21.8440
     C     25.69500000     34.49800000      8.94600000    0.0222  167.8737
     H     28.87600000     34.37900000     10.44000000    0.1267   26.8423
     H     21.34100000     31.75600000     11.66200000    0.1173   26.4625
     H     24.14700000     32.76300000     11.31200000    0.0300   24.9966
     H     21.74500000     34.28200000     12.53300000    0.0118   27.3536
     H     22.18600000     35.58800000     10.57200000    0.1528   31.9953
     H     23.36200000     36.16700000     12.78000000    0.0206   30.4594
     H     23.87600000     34.73700000     13.73800000    0.0433   29.9547
     H     24.68200000     35.10900000     12.17700000    0.0269   30.2994
     H     25.50600000     32.15100000     12.93200000    0.0986   23.5585
     H     25.36900000     31.73600000      9.16600000    0.1272   22.7123
     H     27.66100000     33.67200000      8.59400000    0.0126   26.3852
     H     24.80600000     34.23900000      9.53900000    0.0484   28.7090
     H     26.08400000     35.47300000      9.27400000    0.0074   30.5555
     H     28.49810000     33.95820000     12.06710000    0.1238   27.2714
     H     21.73270000     30.53490000      9.76920000   -0.0041   23.5428
     H     25.03460000     31.74030000     14.54610000    0.1121   27.4983
     H     26.42530000     30.46100000      7.60440000   -0.0245   23.6580
     H     25.39800000     34.57900000      7.89000000    0.0475   30.0391
