33
chgs=0 nmr=1 
     N     20.71700000     22.96400000     12.26000000   -0.1307  132.3640
     C     21.18400000     24.26300000     11.69000000    0.1867  140.2080
     C     22.65000000     24.51600000     12.17200000   -0.2208  147.2148
     C     22.66200000     24.81900000     13.69900000   -0.0348  158.9014
     C     23.37600000     25.64500000     11.40900000    0.0079  172.6092
     C     24.12300000     24.98100000     14.19500000   -0.0266  174.0677
     C     21.44700000     27.86900000     16.02600000    0.0130   67.4508
     C     21.32500000     28.81300000     15.00500000    0.0012   66.8826
     C     20.63800000     26.73500000     16.05300000   -0.0001   65.6961
     C     20.36900000     28.64800000     14.00100000    0.0227   65.3883
     C     19.67700000     26.53900000     15.05100000    0.0189   65.2734
     C     19.59300000     27.46500000     14.02100000   -0.0075   64.8244
     C     19.44200000     22.74500000     12.51000000    0.1267   41.1555
     O     18.57100000     23.61000000     12.28900000   -0.2928  -79.4387
     H     21.38500000     22.24600000     12.45600000    0.1127   27.8623
     H     20.53700000     25.08800000     12.02200000    0.0442   27.6108
     H     23.21600000     23.58600000     12.01300000    0.0002   30.5768
     H     22.10700000     25.74900000     13.89000000    0.0555   32.1907
     H     22.18400000     23.98900000     14.23900000    0.0007   30.2608
     H     24.39600000     25.75900000     11.80600000    0.0309   29.7757
     H     23.42500000     25.39200000     10.34000000    0.0208   30.6448
     H     22.82500000     26.58800000     11.53800000    0.0295   31.3807
     H     24.12300000     25.19500000     15.27400000    0.0236   30.5470
     H     24.68000000     24.05100000     14.00600000    0.0172   31.1733
     H     24.60300000     25.81200000     13.65700000    0.0302   30.2849
     H     21.97400000     29.67600000     14.99200000   -0.0134   24.2592
     H     20.75100000     26.00800000     16.84400000   -0.0137   24.2546
     H     20.22700000     29.39700000     13.23600000   -0.0109   24.0011
     H     19.01600000     25.68500000     15.08000000   -0.0011   24.0249
     H     18.91100000     27.27600000     13.20500000    0.0056   24.0345
     H     21.13070000     24.15350000     10.59680000    0.0256   28.5814
     H     22.20570000     28.00520000     16.81080000   -0.0062   24.0117
     H     19.16980000     21.73940000     12.86300000   -0.0149   23.3119
