34
chgs=0 nmr=1 
     O     29.58600000     43.57000000     19.48300000   -0.2591  -51.0612
     N     30.99100000     42.57100000     17.99800000   -0.1654  130.3055
     C     31.42200000     43.94000000     17.55300000    0.0822  128.2215
     C     30.75500000     44.35100000     16.27700000   -0.0167   34.6783
     O     31.20700000     45.26800000     15.56600000   -0.2572  -25.5943
     C     32.97900000     43.91800000     17.44500000    0.0314  115.5589
     O     33.17400000     43.06700000     16.26500000   -0.2745  272.5440
     C     33.65700000     43.31900000     18.67200000    0.0340  167.0718
     N     29.72100000     43.67300000     15.88500000    0.0420  162.4018
     C     30.22500000     38.64300000     16.66200000    0.0227  148.1657
     C     29.66400000     39.83900000     17.43400000   -0.0153   33.6078
     O     28.85000000     40.56500000     16.85900000   -0.2362  -76.9129
     C     31.74400000     38.87900000     16.29900000    0.1057  124.6309
     O     31.73700000     40.25700000     15.82400000   -0.2694  292.7489
     N     30.13200000     40.06900000     18.64200000   -0.1243  158.9715
     C     29.60700000     41.18000000     19.46700000    0.1668  145.6734
     C     30.07500000     42.53800000     18.98400000    0.0103   31.8049
     H     31.36100000     41.73700000     17.58800000    0.1236   24.0882
     H     31.15100000     44.66200000     18.33700000    0.0602   26.3656
     H     33.35300000     44.93600000     17.26300000    0.0297   26.6543
     H     34.10300000     42.97400000     16.09100000    0.1448   32.3875
     H     34.74800000     43.33300000     18.53200000    0.0224   30.5032
     H     33.39400000     43.91000000     19.56100000    0.0354   30.3201
     H     33.31800000     42.28100000     18.80800000   -0.0028   30.3447
     H     29.42000000     42.90600000     16.45100000    0.1083   26.2109
     H     30.16200000     37.75100000     17.30200000    0.0241   29.2064
     H     32.36600000     38.76400000     17.19900000    0.0081   27.5925
     H     32.61800000     40.51000000     15.57300000    0.1513   31.6065
     H     30.85500000     39.48300000     19.00900000    0.1130   26.7514
     H     28.51100000     41.16800000     19.37000000    0.0588   27.0719
     H     29.20720000     43.87150000     15.05040000    0.1154   27.3631
     H     29.62730000     38.48370000     15.75240000    0.0452   28.6572
     H     32.11290000     38.22830000     15.49250000    0.0366   27.1956
     H     29.83110000     40.97170000     20.52360000    0.0487   28.0864
