26
chgs=0 nmr=1 
     C     31.82700000     27.26200000      2.89400000    0.0362  172.5920
     N     30.88400000     31.48500000      6.66600000   -0.0742  112.0763
     C     31.67700000     30.27500000      6.63900000   -0.0173  146.6702
     C     31.02200000     29.28800000      5.66500000    0.0384   32.1450
     O     29.80900000     29.39500000      5.54500000   -0.2537    4.9464
     C     31.56200000     29.68600000      8.04500000    0.0277  164.6228
     N     30.31000000     25.45800000      5.38400000   -0.0117  166.4084
     O     32.61900000     32.81200000      6.12500000   -0.3035  -72.8588
     C     31.22000000     27.34100000      4.27500000   -0.0257  136.9937
     N     31.83400000     28.41200000      5.12500000   -0.0722  134.2533
     C     31.40900000     32.68000000      6.44600000    0.1295   42.1038
     C     31.44000000     26.07900000      5.08000000    0.0124   30.0931
     O     32.57600000     25.80200000      5.46100000   -0.2294  -14.8406
     H     32.92200000     27.30900000      2.98900000    0.0369   29.9688
     H     31.53900000     26.30300000      2.43900000    0.0307   30.3306
     H     29.90500000     31.41600000      6.85800000    0.1176   26.0495
     H     32.72700000     30.46400000      6.36900000    0.0354   26.5510
     H     30.84400000     30.34400000      8.55700000    0.0198   30.1657
     H     31.10600000     28.69700000      7.88900000    0.0238   29.9657
     H     29.44600000     25.83300000      5.04800000    0.1235   26.9943
     H     30.13900000     27.52500000      4.18300000    0.0216   26.7952
     H     32.82200000     28.45600000      5.27400000    0.1292   26.3386
     H     31.49770000     28.07680000      2.23250000    0.0463   30.0905
     H     32.34920000     29.50780000      8.79240000    0.0441   29.4383
     H     30.29490000     24.62620000      5.93880000    0.1204   27.8626
     H     30.74920000     33.55880000      6.49420000   -0.0058   23.3147
