31
chgs=0 nmr=1 
     C     21.86100000     31.34200000      3.47400000   -0.0447  173.7862
     N     26.84900000     29.65600000      6.21700000   -0.0317  154.5879
     C     21.65600000     26.84700000      5.24000000   -0.0056  155.8111
     C     21.12700000     28.24000000      5.57400000   -0.0203   31.0338
     O     19.95800000     28.46500000      5.84200000   -0.2259  -59.7565
     C     21.63100000     26.64200000      3.73100000   -0.0331  175.3172
     N     21.67400000     30.03400000      8.19100000    0.0099  169.5277
     C     26.10000000     29.25300000      5.20200000    0.1265   36.1876
     O     24.86500000     29.02400000      5.33000000   -0.2839  -54.1797
     N     22.09900000     29.16300000      5.60500000   -0.1147  146.4614
     C     21.90700000     30.56300000      5.88100000   -0.0084  129.7929
     C     21.46600000     30.95300000      7.26100000    0.0065   30.5368
     O     21.06600000     32.11200000      7.53300000   -0.2552  -37.3628
     C     21.02300000     31.22300000      4.78400000   -0.0180  167.6766
     H     22.03900000     32.40600000      3.26000000    0.0246   30.0338
     H     22.82400000     30.83100000      3.61900000    0.0077   30.8377
     H     27.84300000     29.68800000      6.11500000    0.1297   27.0215
     H     22.70900000     26.81500000      5.55600000    0.0017   29.3498
     H     22.06200000     27.53200000      3.24900000    0.0270   30.1975
     H     22.24200000     25.76100000      3.48700000    0.0267   30.2124
     H     22.02400000     29.14200000      7.90400000    0.1006   26.2699
     H     23.03200000     28.85400000      5.42200000    0.1187   23.5485
     H     22.89500000     31.02900000      5.75500000    0.0315   28.7869
     H     20.13500000     30.60100000      4.60000000    0.0417   28.9623
     H     20.70800000     32.22400000      5.11400000    0.0347   28.8018
     H     21.34160000     30.88810000      2.61710000    0.0233   30.2966
     H     26.43290000     29.92850000      7.08450000    0.1324   26.8752
     H     21.09940000     26.09800000      5.82240000    0.0280   29.6139
     H     20.61700000     26.48570000      3.33430000    0.0416   29.9653
     H     21.50030000     30.18320000      9.16440000    0.1102   27.7226
     H     26.64200000     29.08530000      4.25960000    0.0186   23.5002
