22
chgs=0 nmr=1 
     N     26.84900000     29.65600000      6.21700000   -0.0807  132.7907
     C     26.23500000     30.05800000      7.49700000   -0.0140  127.1522
     C     26.88200000     31.42800000      7.86200000   -0.0018   32.7038
     O     27.90600000     31.71100000      7.26400000   -0.2152  -32.2703
     C     26.34400000     29.05000000      8.64500000   -0.1317  152.3000
     C     27.81000000     28.74800000      8.99900000   -0.0008  173.5166
     C     25.49100000     27.77100000      8.28700000    0.0337  164.6126
     C     26.10000000     29.25300000      5.20200000    0.1370   38.0316
     O     24.86500000     29.02400000      5.33000000   -0.3022  -76.6679
     N     26.21400000     32.09700000      8.77100000    0.0209  174.3449
     H     27.84300000     29.68800000      6.11500000    0.1201   26.0663
     H     25.16500000     30.24200000      7.32000000    0.0323   26.4669
     H     25.87900000     29.50700000      9.53100000   -0.0062   29.5711
     H     28.22100000     28.06200000      8.24300000    0.0207   30.7331
     H     28.37700000     29.69100000      8.98500000    0.0337   30.2440
     H     25.56300000     27.04000000      9.10600000    0.0181   30.3396
     H     24.43900000     28.06000000      8.14500000    0.0286   29.8884
     H     25.87600000     27.32100000      7.36000000    0.0396   30.1951
     H     25.36900000     31.73600000      9.16600000    0.1252   26.8871
     H     27.91980000     28.28560000      9.99100000    0.0281   30.4597
     H     26.64200000     29.08530000      4.25960000   -0.0055   23.2805
     H     26.58310000     32.98270000      9.05280000    0.1202   27.5812
