40
chgs=0 nmr=1 
     C     31.92300000     20.43600000      8.75500000    0.1509   38.0335
     O     32.49300000     19.37400000      8.45600000   -0.2689 -107.3289
     O     31.83800000     21.40200000      7.96800000   -0.0462  154.2465
     C     30.28800000     24.24500000      6.19300000   -0.0140  155.8427
     C     29.27900000     23.22700000      5.64100000   -0.0069   28.8733
     O     28.47800000     23.52200000      4.72500000   -0.2649  -44.8659
     C     29.90300000     24.59000000      7.66500000   -0.0540  172.9201
     N     29.38000000     22.05700000      6.23200000   -0.0818  138.9594
     C     28.46800000     20.94000000      5.98000000    0.0223  135.8712
     C     27.81900000     20.60900000      7.31600000    0.0896   32.7402
     O     28.44900000     20.67400000      8.36000000   -0.2579  -20.1003
     C     29.21300000     19.69700000      5.50600000   -0.0335  158.5995
     C     29.72800000     19.75500000      4.06000000   -0.0019  176.9086
     N     26.55900000     20.22000000      7.28800000   -0.2909  133.1409
     C     25.82900000     19.82500000      8.49400000    0.1748  142.8432
     C     24.46900000     19.33200000      7.95200000   -0.0739  162.4465
     C     24.29900000     20.13400000      6.70400000   -0.0452  161.8158
     C     25.71400000     20.10800000      6.07300000    0.1211  136.8534
     H     32.26600000     21.18200000      7.14900000    0.1641   25.7004
     H     31.28700000     23.78400000      6.19600000    0.0066   29.4868
     H     29.89100000     23.63600000      8.21200000    0.0221   29.9244
     H     30.12100000     21.92300000      6.89000000    0.1125   25.7653
     H     27.69800000     21.22000000      5.24600000    0.0218   26.4781
     H     30.07700000     19.54500000      6.16900000    0.0168   30.3076
     H     28.53000000     18.83800000      5.59000000    0.0181   29.8691
     H     30.51000000     20.52800000      4.02300000    0.0194   30.2916
     H     30.17100000     18.77400000      3.83200000    0.0315   30.3367
     H     25.66900000     20.69300000      9.15000000    0.0337   28.1833
     H     24.49800000     18.25500000      7.73000000    0.0294   29.6757
     H     23.65900000     19.53700000      8.66800000    0.0320   29.3916
     H     23.56000000     19.67000000      6.03400000    0.0281   29.4734
     H     23.98900000     21.16400000      6.93600000    0.0404   29.5928
     H     25.90100000     19.16700000      5.53500000    0.0317   28.2942
     H     25.87000000     20.95700000      5.39100000    0.0619   27.3891
     H     31.36200000     20.49370000      9.69940000    0.0426   23.3268
     H     30.30460000     25.16000000      5.58270000    0.0299   29.4215
     H     30.60400000     25.25220000      8.19420000    0.0327   30.1617
     H     28.87570000     24.98230000      7.69380000    0.0359   30.2648
     H     29.00780000     19.98130000      3.25990000    0.0340   30.5169
     H     26.34830000     19.02780000      9.04610000    0.0359   27.9794
