28
chgs=0 nmr=1 
     N     37.63300000     26.54300000     11.86700000   -0.1061  122.9737
     C     37.47100000     27.39100000     10.66800000    0.0630  129.7774
     C     37.44100000     28.88200000     11.05200000    0.0040   26.2974
     O     38.02000000     29.77200000     10.38200000   -0.2442  -70.0853
     C     36.19300000     27.05800000      9.91100000   -0.0487  154.1650
     C     36.15300000     25.62000000      9.40900000   -0.0326  168.2494
     C     34.75800000     25.28000000      8.90000000   -0.0171  174.2284
     N     34.73400000     25.82200000     14.94900000   -0.0362  158.0909
     C     34.44100000     26.09900000     13.68400000    0.1028   40.9423
     O     34.88300000     27.09000000     13.09300000   -0.2497  -56.7577
     N     36.81100000     29.17000000     12.19200000   -0.0093  165.6074
     C     38.72800000     26.59100000     12.61100000    0.1324   35.6828
     O     39.70400000     27.34600000     12.27700000   -0.2895 -133.5571
     H     36.89700000     25.91700000     12.12400000    0.1125   27.1169
     H     38.32600000     27.22700000      9.99500000    0.0253   27.4981
     H     35.33700000     27.21800000     10.58200000    0.0178   29.4104
     H     36.11200000     27.73300000      9.04600000    0.0375   29.5884
     H     36.87800000     25.50100000      8.59000000    0.0228   30.0208
     H     36.41500000     24.94000000     10.23300000   -0.0076   30.2653
     H     34.16900000     24.86400000      9.73100000    0.0162   30.3521
     H     34.27900000     26.20100000      8.53600000    0.0297   30.6201
     H     34.36300000     24.99500000     15.37200000    0.1295   27.0943
     H     36.39600000     28.44100000     12.73600000    0.0845   25.2383
     H     34.78330000     24.54580000      8.08130000    0.0261   30.1424
     H     35.32050000     26.42960000     15.48450000    0.1312   26.9611
     H     33.78620000     25.37640000     13.17490000    0.0121   23.4857
     H     36.75670000     30.12000000     12.49940000    0.1112   27.8023
     H     38.77580000     25.98950000     13.53070000   -0.0177   22.9449
