29
chgs=0 nmr=1 
     N     37.63300000     26.54300000     11.86700000   -0.0941  143.1935
     C     37.47100000     27.39100000     10.66800000    0.0377  129.5000
     C     37.44100000     28.88200000     11.05200000    0.0140   27.0214
     C     36.97500000     26.82600000     15.10700000    0.1141   39.2599
     O     37.57900000     27.92600000     15.15900000   -0.2712 -114.6351
     O     38.02000000     29.77200000     10.38200000   -0.2350  -75.1037
     C     36.19300000     27.05800000      9.91100000   -0.0472  162.4700
     C     36.15300000     25.62000000      9.40900000   -0.0004  176.2215
     N     36.81100000     29.17000000     12.19200000    0.0001  165.3458
     N     37.49900000     25.74300000     14.57100000   -0.0919  131.7572
     C     38.79400000     25.76100000     13.88000000    0.0308  137.9687
     C     38.72800000     26.59100000     12.61100000    0.0436   22.4581
     O     39.70400000     27.34600000     12.27700000   -0.2532 -126.9248
     C     39.28500000     24.33600000     13.56600000   -0.0057  170.5450
     H     36.89700000     25.91700000     12.12400000    0.0907   26.7604
     H     38.32600000     27.22700000      9.99500000    0.0323   27.5451
     H     35.33700000     27.21800000     10.58200000    0.0033   30.2249
     H     36.11200000     27.73300000      9.04600000    0.0486   29.3077
     H     36.87800000     25.50100000      8.59000000    0.0383   30.3303
     H     36.41500000     24.94000000     10.23300000   -0.0000   30.5799
     H     36.39600000     28.44100000     12.73600000    0.0950   27.2567
     H     36.99800000     24.88000000     14.63700000    0.1111   27.0385
     H     39.53500000     26.22600000     14.54600000    0.0492   26.8271
     H     40.25500000     24.38700000     13.05000000    0.0660   29.5360
     H     39.39800000     23.77200000     14.50400000    0.0470   30.0567
     H     38.55200000     23.83000000     12.92000000    0.0178   30.4608
     H     35.97690000     26.74570000     15.56230000   -0.0025   23.0340
     H     35.14570000     25.37450000      9.04150000    0.0372   30.2151
     H     36.75670000     30.12000000     12.49940000    0.1242   27.6251
