21
chgs=0 nmr=1 
     C     30.49100000     19.16200000     12.04000000    0.1238   40.7729
     O     29.36700000     19.52300000     12.44100000   -0.2874  -80.4613
     C     28.23600000     15.86400000     13.55800000   -0.1822  193.9303
     N     31.51000000     18.93600000     12.85200000   -0.1238  148.3189
     C     31.39800000     19.06400000     14.28600000    0.1557  144.0669
     C     32.49200000     18.19300000     14.99500000   -0.0228  115.7848
     O     33.77800000     18.73900000     14.51600000   -0.2926  271.7343
     C     32.35200000     16.70000000     14.63000000   -0.0026  166.8417
     H     27.93200000     15.14100000     12.78700000    0.0399   31.1517
     H     29.26400000     16.20200000     13.35900000    0.0447   31.2883
     H     28.19300000     15.38400000     14.54700000    0.0353   31.2742
     H     32.38900000     18.66700000     12.45900000    0.1192   26.8451
     H     30.40500000     18.73500000     14.62700000    0.0447   27.5608
     H     32.40300000     18.31600000     16.08500000    0.0233   27.0738
     H     34.49400000     18.25400000     14.90900000    0.1542   31.7577
     H     33.13400000     16.12100000     15.14400000    0.0254   30.3670
     H     31.36200000     16.33700000     14.94300000    0.0406   30.1465
     H     32.46000000     16.57700000     13.54200000    0.0212   29.8235
     H     30.71360000     19.10430000     10.96430000   -0.0150   23.2940
     H     27.55590000     16.72840000     13.53990000    0.0596   30.8480
     H     31.53670000     20.12320000     14.54850000    0.0389   28.0848
