21
chgs=0 nmr=1 
     N     34.73400000     25.82200000     14.94900000   -0.1433  135.9978
     C     35.59600000     26.71500000     15.73600000    0.1603  145.3708
     C     35.71500000     26.20300000     17.17200000   -0.0773  154.1200
     C     34.34300000     26.44500000     17.89800000   -0.0629  149.5753
     C     34.50900000     26.07700000     19.36000000   -0.0509  160.0903
     C     33.20600000     26.31100000     20.12200000   -0.0115  171.5577
     C     34.44100000     26.09900000     13.68400000    0.1282   42.8486
     O     34.88300000     27.09000000     13.09300000   -0.2725  -85.1260
     H     34.36300000     24.99500000     15.37200000    0.1146   27.7661
     H     35.14500000     27.71800000     15.76300000    0.0287   28.2384
     H     35.94800000     25.12800000     17.16500000    0.0193   30.0413
     H     36.51400000     26.74800000     17.69600000    0.0265   29.7323
     H     34.05700000     27.50400000     17.81100000    0.0193   30.2314
     H     33.56400000     25.81600000     17.44200000    0.0051   29.7685
     H     34.78800000     25.01600000     19.43700000    0.0131   30.0535
     H     35.30300000     26.69700000     19.80200000    0.0176   30.0014
     H     32.92400000     27.37300000     20.07200000    0.0252   30.3890
     H     32.40100000     25.69700000     19.69200000    0.0220   30.4581
     H     36.59410000     26.79530000     15.28070000    0.0336   27.9639
     H     33.38860000     26.01700000     21.16610000    0.0253   29.9941
     H     33.78620000     25.37640000     13.17490000   -0.0205   23.4486
