25
chgs=0 nmr=1 
     C     40.16800000     30.02600000     19.91800000    0.1437   41.0694
     O     39.26400000     30.66200000     20.52100000   -0.3011 -105.8988
     C     42.44500000     29.84800000     15.18200000   -0.0123  167.2937
     C     43.09000000     28.82800000     16.09500000   -0.0712   33.3588
     O     42.77000000     27.65500000     15.90600000   -0.2429  -71.7732
     N     43.89800000     29.25200000     17.05000000   -0.0170  168.3745
     N     40.05900000     28.75800000     19.60700000   -0.2732  123.8210
     C     38.81700000     28.02000000     19.88900000    0.1719  143.5734
     C     39.09000000     26.62900000     19.32500000   -0.0808  163.3030
     C     40.08200000     26.90400000     18.19800000   -0.0533  159.1512
     C     41.03500000     27.90900000     18.87900000    0.1533  139.6186
     H     43.02100000     29.92200000     14.24800000    0.0640   29.1962
     H     42.42600000     30.82900000     15.68000000    0.0092   29.8997
     H     44.30200000     28.59800000     17.69000000    0.1206   27.7333
     H     44.10600000     30.22700000     17.13300000    0.1171   26.9543
     H     38.00200000     28.46900000     19.30300000    0.0261   28.1858
     H     39.53200000     25.97200000     20.08900000    0.0265   29.8160
     H     38.16800000     26.17200000     18.93700000    0.0293   29.4883
     H     40.61100000     25.98900000     17.89400000    0.0370   29.4013
     H     39.58500000     27.34800000     17.32300000    0.0363   29.7984
     H     41.73000000     27.40700000     19.56800000    0.0253   28.5151
     H     41.60700000     28.49000000     18.14100000    0.0273   27.6028
     H     41.10530000     30.55160000     19.68310000   -0.0314   23.0292
     H     41.41650000     29.52930000     14.95700000    0.0574   29.4601
     H     38.52760000     28.04050000     20.95010000    0.0381   27.9514
