22
chgs=0 nmr=1 
     S     23.93000000     23.95900000      5.90400000   -0.1235  679.7387
     C     24.44700000     23.98400000      7.62000000   -0.1722  179.9632
     N     26.55900000     20.22000000      7.28800000   -0.2879  129.5764
     C     25.82900000     19.82500000      8.49400000    0.1700  143.3931
     C     24.46900000     19.33200000      7.95200000   -0.0761  163.4617
     C     24.29900000     20.13400000      6.70400000   -0.0630  161.1420
     C     25.71400000     20.10800000      6.07300000    0.1511  140.4962
     C     27.81900000     20.60900000      7.31600000    0.1399   45.6005
     O     28.44900000     20.67400000      8.36000000   -0.2641  -84.1571
     H     23.69300000     23.47500000      8.23800000    0.0846   29.9787
     H     25.41300000     23.46700000      7.71900000    0.0860   29.0686
     H     24.55300000     25.02600000      7.95600000    0.0781   29.1153
     H     25.66900000     20.69300000      9.15000000    0.0259   28.2043
     H     24.49800000     18.25500000      7.73000000    0.0278   29.7429
     H     23.65900000     19.53700000      8.66800000    0.0271   29.4773
     H     23.56000000     19.67000000      6.03400000    0.0258   29.5130
     H     23.98900000     21.16400000      6.93600000    0.0359   29.3434
     H     25.90100000     19.16700000      5.53500000    0.0294   28.3292
     H     25.87000000     20.95700000      5.39100000    0.0283   27.6556
     H     24.95960000     24.61090000      5.34690000    0.0688   30.7089
     H     26.34830000     19.02780000      9.04610000    0.0353   27.8823
     H     28.28810000     20.84830000      6.35030000   -0.0271   23.1993
