30
chgs=0 nmr=1 
     N     34.73400000     25.82200000     14.94900000   -0.1109  130.5304
     C     35.59600000     26.71500000     15.73600000   -0.0032  131.1461
     C     36.97500000     26.82600000     15.10700000    0.0188   24.3983
     O     37.57900000     27.92600000     15.15900000   -0.2632  -38.9002
     C     35.71500000     26.20300000     17.17200000   -0.0408  158.4871
     C     34.34300000     26.44500000     17.89800000   -0.0253  173.2119
     C     36.08300000     30.19400000     17.87500000    0.0900   40.1013
     O     35.04800000     29.70200000     17.39300000   -0.2759  -63.1162
     N     37.22800000     30.12600000     17.23300000   -0.0248  155.5114
     C     34.44100000     26.09900000     13.68400000    0.1309   42.1082
     O     34.88300000     27.09000000     13.09300000   -0.2501  -94.1991
     N     37.49900000     25.74300000     14.57100000    0.0197  174.2689
     C     33.28400000     30.50400000     14.55200000   -0.1701  192.4556
     H     34.36300000     24.99500000     15.37200000    0.1092   27.1991
     H     35.14500000     27.71800000     15.76300000    0.0703   26.3027
     H     35.94800000     25.12800000     17.16500000   -0.0003   30.3685
     H     36.51400000     26.74800000     17.69600000    0.0396   29.5318
     H     34.05700000     27.50400000     17.81100000    0.0658   29.3616
     H     33.56400000     25.81600000     17.44200000    0.0046   30.5303
     H     37.27600000     29.67300000     16.34300000    0.1282   24.5474
     H     38.05100000     30.52700000     17.63500000    0.1087   27.4328
     H     36.99800000     24.88000000     14.63700000    0.0994   27.0905
     H     32.24400000     30.40100000     14.20900000    0.0221   31.3235
     H     33.56500000     29.61800000     15.14000000    0.0629   30.4194
     H     33.37700000     31.40400000     15.17800000    0.0315   31.2062
     H     34.46340000     26.17810000     18.95830000    0.0273   30.3989
     H     36.03110000     30.68130000     18.85980000   -0.0125   23.2248
     H     33.78620000     25.37640000     13.17490000   -0.0163   23.3245
     H     38.38120000     25.75530000     14.10030000    0.1226   27.6245
     H     33.95050000     30.59300000     13.68140000    0.0418   30.9564
