38
chgs=0 nmr=1 
     C     29.90300000     24.59000000      7.66500000   -0.0969  180.7759
     C     28.47600000     25.13500000      7.70500000   -0.0887  178.4914
     C     27.81900000     20.60900000      7.31600000    0.1599   44.7155
     O     28.44900000     20.67400000      8.36000000   -0.2605  -75.0442
     N     26.55900000     20.22000000      7.28800000   -0.2847  128.2702
     C     25.82900000     19.82500000      8.49400000    0.1396  142.2140
     C     24.46900000     19.33200000      7.95200000   -0.0714  163.8718
     C     24.29900000     20.13400000      6.70400000   -0.0634  162.0275
     C     25.71400000     20.10800000      6.07300000    0.1459  140.3041
     C     26.08400000     21.88800000     11.83300000   -0.0114  164.1528
     C     27.42600000     22.61600000     11.90200000   -0.1676  163.4346
     C     27.71800000     23.34100000     10.57800000   -0.0470  157.5579
     C     27.38000000     23.72100000     12.95500000    0.0133  160.1015
     H     29.89100000     23.63600000      8.21200000    0.0404   30.0807
     H     28.20500000     25.37800000      8.74300000    0.0343   30.3359
     H     28.41300000     26.04300000      7.08700000    0.0210   30.4963
     H     27.78300000     24.37600000      7.31300000    0.0213   30.7081
     H     25.66900000     20.69300000      9.15000000    0.0531   27.5054
     H     24.49800000     18.25500000      7.73000000    0.0296   29.7417
     H     23.65900000     19.53700000      8.66800000    0.0325   29.4244
     H     23.56000000     19.67000000      6.03400000    0.0284   29.5099
     H     23.98900000     21.16400000      6.93600000    0.0378   29.7037
     H     25.90100000     19.16700000      5.53500000    0.0335   28.2688
     H     25.87000000     20.95700000      5.39100000    0.0351   27.8226
     H     26.14900000     21.16800000     11.00400000    0.0318   29.7124
     H     25.31800000     22.64300000     11.60300000    0.0043   31.0826
     H     28.23400000     21.90500000     12.13000000    0.0200   29.6377
     H     28.68700000     23.85800000     10.64800000    0.0265   30.2168
     H     27.75200000     22.60800000      9.75900000    0.0476   29.3409
     H     26.92400000     24.07600000     10.38000000    0.0115   30.9539
     H     28.35200000     24.23400000     12.99200000    0.0163   30.1607
     H     26.59400000     24.44400000     12.69300000    0.0092   30.8348
     H     27.16100000     23.28100000     13.93900000    0.0111   30.1906
     H     30.17450000     24.34680000      6.62710000    0.0239   30.4658
     H     30.60400000     25.25220000      8.19420000    0.0293   30.5067
     H     28.28810000     20.84830000      6.35030000   -0.0206   23.1488
     H     26.34830000     19.02780000      9.04610000    0.0390   27.7900
     H     25.73480000     21.33280000     12.71610000    0.0158   30.2791
