19
chgs=0 nmr=1 
     C     21.11000000     24.11100000     10.17300000    0.1131   38.9730
     O     21.84100000     23.19800000      9.68600000   -0.3074  -83.3485
     N     20.92400000     25.86200000      6.00600000   -0.0052  173.3516
     N     20.29100000     24.87500000      9.50700000   -0.0576  129.2605
     C     20.08100000     24.77300000      8.03300000    0.0168  133.9782
     C     20.82200000     25.91400000      7.33200000    0.0079   28.3830
     O     21.32300000     26.83000000      8.00800000   -0.2249  -80.4727
     C     18.59900000     24.73600000      7.72700000   -0.0499  160.3756
     C     17.81900000     23.43400000      7.90000000   -0.0021  174.4097
     H     20.47700000     25.11200000      5.51900000    0.1092   27.5358
     H     19.77500000     25.56800000     10.01100000    0.1173   27.2996
     H     20.52200000     23.82600000      7.68800000    0.0380   26.6028
     H     18.12100000     25.48200000      8.37800000    0.0176   29.9868
     H     18.48300000     25.03900000      6.67600000    0.0075   29.7721
     H     18.41700000     22.59300000      7.51900000    0.0314   30.4116
     H     17.60000000     23.27500000      8.96600000    0.0344   30.0094
     H     21.16330000     24.22050000     11.26620000   -0.0064   22.9159
     H     21.43000000     26.54290000      5.47650000    0.1251   27.4143
     H     16.87690000     23.50230000      7.33620000    0.0351   30.1112
