22
chgs=0 nmr=1 
     C     33.58900000     30.18900000     22.18100000    0.1380   46.2835
     O     33.58000000     29.00900000     22.49900000   -0.2693  -48.1758
     N     29.69400000     29.43600000     21.05400000    0.0083  159.2955
     N     32.47800000     30.91700000     22.26900000   -0.1193  114.7795
     C     31.20000000     30.32900000     22.78000000    0.0675  139.2755
     C     30.21000000     30.50900000     21.65000000    0.0128   16.5011
     O     29.97800000     31.72600000     21.26900000   -0.3024  -82.6001
     C     30.84700000     30.93100000     24.11800000    0.0138  151.7688
     C     29.41200000     30.79600000     24.59800000   -0.0571  169.8229
     C     29.27100000     31.31400000     26.01600000   -0.0210  172.2619
     H     29.93800000     28.52400000     21.38400000    0.1222   26.7286
     H     32.49800000     31.87600000     21.98800000    0.1189   26.7281
     H     31.35500000     29.25000000     22.92500000    0.0113   26.4252
     H     31.49100000     30.45600000     24.87200000    0.0264   29.7813
     H     31.07600000     32.00600000     24.06500000    0.0129   29.7750
     H     28.75300000     31.37500000     23.93500000    0.0380   29.9368
     H     29.12000000     29.73600000     24.57000000    0.0064   30.4298
     H     29.85100000     30.66900000     26.69200000    0.0240   30.4787
     H     29.66200000     32.34100000     26.06300000    0.0250   30.5339
     H     34.42380000     30.68740000     21.66660000   -0.0093   23.6886
     H     29.06640000     29.52830000     20.28090000    0.1262   27.1618
     H     28.21910000     31.31630000     26.33770000    0.0266   30.1529
