26
chgs=0 nmr=1 
     C     37.44100000     28.88200000     11.05200000    0.1348   39.3535
     O     38.02000000     29.77200000     10.38200000   -0.2628 -112.5652
     N     38.88300000     30.11000000     13.71300000   -0.1080  157.8180
     C     40.26900000     30.50800000     14.11500000    0.1340  141.8825
     C     41.09200000     30.80800000     12.85100000   -0.0556   33.6391
     O     41.82800000     31.80800000     12.68100000   -0.2310  -77.0790
     N     41.00100000     29.87800000     11.93100000    0.0154  164.7988
     N     36.81100000     29.17000000     12.19200000   -0.1193  125.3015
     C     36.73100000     30.57000000     12.64500000    0.0764  130.6863
     C     38.14800000     30.98100000     13.06900000    0.0162   29.1128
     O     38.54400000     32.15000000     12.85600000   -0.2350 -106.4831
     C     35.70800000     30.77600000     13.80600000   -0.0522  161.4401
     C     35.87400000     32.13800000     14.51200000   -0.0235  176.5570
     H     38.52700000     29.20100000     13.93100000    0.0921   26.3772
     H     40.23000000     31.41000000     14.74400000    0.0491   27.5646
     H     40.44300000     29.06500000     12.10000000    0.0885   27.7005
     H     36.39600000     28.44100000     12.73600000    0.1093   26.8716
     H     36.42300000     31.20600000     11.80200000    0.0458   27.0632
     H     35.89000000     29.98800000     14.55100000   -0.0020   30.3130
     H     35.13000000     32.22700000     15.31700000    0.0293   30.3546
     H     36.88600000     32.20900000     14.93800000    0.0538   30.1972
     H     35.72500000     32.94900000     13.78400000    0.0472   30.0906
     H     37.46240000     27.81700000     10.77770000   -0.0067   23.3172
     H     40.79390000     29.70730000     14.65650000    0.0418   28.2322
     H     41.48510000     29.97520000     11.06140000    0.1244   27.5551
     H     34.66770000     30.67340000     13.46370000    0.0379   29.5623
