28
chgs=0 nmr=1 
     C     22.65000000     24.51600000     12.17200000   -0.0635  161.7785
     C     22.66200000     24.81900000     13.69900000   -0.0555  161.5935
     C     23.37600000     25.64500000     11.40900000   -0.0554  176.1263
     C     24.12300000     24.98100000     14.19500000   -0.0741  172.2354
     C     25.59400000     21.10900000     13.07200000   -0.0476  176.9016
     C     26.08400000     21.88800000     11.83300000   -0.0768  163.5792
     C     27.42600000     22.61600000     11.90200000   -0.0417  163.7716
     C     27.38000000     23.72100000     12.95500000   -0.0585  173.1630
     H     23.21600000     23.58600000     12.01300000    0.0212   30.0910
     H     22.10700000     25.74900000     13.89000000    0.0176   30.2679
     H     22.18400000     23.98900000     14.23900000    0.0165   29.7628
     H     24.39600000     25.75900000     11.80600000    0.0357   29.4371
     H     23.42500000     25.39200000     10.34000000    0.0247   30.2555
     H     22.82500000     26.58800000     11.53800000    0.0245   30.7833
     H     24.12300000     25.19500000     15.27400000    0.0229   30.1922
     H     24.68000000     24.05100000     14.00600000    0.0341   30.4539
     H     24.60300000     25.81200000     13.65700000    0.0331   29.5725
     H     25.51600000     21.80500000     13.92000000    0.0320   29.9003
     H     26.14900000     21.16800000     11.00400000    0.0141   29.6846
     H     25.31800000     22.64300000     11.60300000    0.0201   30.0021
     H     28.23400000     21.90500000     12.13000000    0.0154   30.1786
     H     28.35200000     24.23400000     12.99200000    0.0217   30.2060
     H     26.59400000     24.44400000     12.69300000    0.0279   30.5203
     H     27.16100000     23.28100000     13.93900000    0.0262   30.0037
     H     21.61880000     24.33800000     11.83300000    0.0167   29.7768
     H     26.33400000     20.32790000     13.30050000    0.0209   30.6803
     H     24.61890000     20.62400000     12.91710000    0.0304   30.2848
     H     27.63490000     23.13470000     10.95470000    0.0174   29.6755
