31
chgs=0 nmr=1 
     C     31.67700000     30.27500000      6.63900000    0.0172  157.7467
     C     31.02200000     29.28800000      5.66500000   -0.0412   32.9106
     N     30.31000000     25.45800000      5.38400000   -0.1101  149.0646
     C     31.56200000     29.68600000      8.04500000   -0.0647  178.4875
     C     30.28800000     24.24500000      6.19300000    0.1319  144.0735
     O     29.80900000     29.39500000      5.54500000   -0.2486  -16.4378
     C     29.90300000     24.59000000      7.66500000   -0.1815  157.4019
     C     30.86200000     25.49600000      8.38900000    0.0047  169.5397
     C     28.47600000     25.13500000      7.70500000   -0.0148  167.2601
     N     31.83400000     28.41200000      5.12500000   -0.1000  149.4842
     C     31.22000000     27.34100000      4.27500000    0.1468  142.6565
     C     31.44000000     26.07900000      5.08000000    0.0039   33.6888
     O     32.57600000     25.80200000      5.46100000   -0.2530  -14.7513
     H     32.72700000     30.46400000      6.36900000    0.0076   29.4821
     H     29.44600000     25.83300000      5.04800000    0.1275   26.3409
     H     30.84400000     30.34400000      8.55700000    0.0298   29.6653
     H     31.10600000     28.69700000      7.88900000    0.0399   30.2925
     H     31.28700000     23.78400000      6.19600000    0.0374   27.3402
     H     29.89100000     23.63600000      8.21200000    0.0121   29.7508
     H     30.49800000     25.67400000      9.41200000    0.0217   30.5890
     H     31.85400000     25.02200000      8.43000000    0.0276   30.0505
     H     30.93500000     26.45400000      7.85400000    0.0576   30.2361
     H     28.20500000     25.37800000      8.74300000    0.0285   30.4456
     H     28.41300000     26.04300000      7.08700000    0.0207   30.2771
     H     27.78300000     24.37600000      7.31300000    0.0164   30.5266
     H     32.82200000     28.45600000      5.27400000    0.1263   26.1073
     H     30.13900000     27.52500000      4.18300000    0.0193   26.9941
     H     31.07410000     31.19490000      6.65950000    0.0332   28.9098
     H     32.34920000     29.50780000      8.79240000    0.0330   30.3011
     H     29.56540000     23.51590000      5.79770000    0.0209   29.0553
     H     31.66200000     27.28350000      3.26940000    0.0501   28.4620
