21
chgs=0 nmr=1 
     N     20.71700000     22.96400000     12.26000000   -0.1323  133.8874
     C     21.18400000     24.26300000     11.69000000    0.1907  139.8120
     C     22.65000000     24.51600000     12.17200000   -0.2243  146.9472
     C     22.66200000     24.81900000     13.69900000   -0.0232  158.1005
     C     23.37600000     25.64500000     11.40900000    0.0084  171.9205
     C     24.12300000     24.98100000     14.19500000   -0.0306  173.6820
     C     19.44200000     22.74500000     12.51000000    0.1255   41.3926
     O     18.57100000     23.61000000     12.28900000   -0.2882  -85.9735
     H     21.38500000     22.24600000     12.45600000    0.1126   27.7817
     H     20.53700000     25.08800000     12.02200000    0.0433   27.3818
     H     23.21600000     23.58600000     12.01300000    0.0042   30.2506
     H     22.10700000     25.74900000     13.89000000    0.0223   30.5326
     H     22.18400000     23.98900000     14.23900000    0.0093   29.5396
     H     24.39600000     25.75900000     11.80600000    0.0328   29.3686
     H     23.42500000     25.39200000     10.34000000    0.0242   30.3149
     H     22.82500000     26.58800000     11.53800000    0.0285   30.8493
     H     24.12300000     25.19500000     15.27400000    0.0290   30.1467
     H     24.68000000     24.05100000     14.00600000    0.0220   30.8314
     H     24.60300000     25.81200000     13.65700000    0.0327   29.7331
     H     21.13070000     24.15350000     10.59680000    0.0280   28.3507
     H     19.16980000     21.73940000     12.86300000   -0.0147   23.3362
