23
chgs=0 nmr=1 
     N     20.92400000     25.86200000      6.00600000   -0.1334  145.5466
     C     21.65600000     26.84700000      5.24000000    0.1398  150.6210
     C     21.63100000     26.64200000      3.73100000   -0.0813  157.9913
     C     20.21000000     26.42300000      3.17500000   -0.0573  160.4152
     C     20.26800000     26.58900000      1.65600000   -0.0331  155.6104
     C     19.20200000     25.85700000      0.89100000    0.0727  142.5161
     N     17.88400000     26.54400000      1.07500000   -0.2280  232.8012
     C     20.82200000     25.91400000      7.33200000    0.1261   41.0095
     O     21.32300000     26.83000000      8.00800000   -0.2792  -97.3760
     H     20.47700000     25.11200000      5.51900000    0.1121   27.5988
     H     22.70900000     26.81500000      5.55600000    0.0294   28.1923
     H     22.06200000     27.53200000      3.24900000    0.0362   29.8199
     H     22.24200000     25.76100000      3.48700000    0.0264   29.7545
     H     19.86200000     25.41000000      3.42700000    0.0016   30.6154
     H     19.52200000     27.16500000      3.60600000    0.0293   29.9350
     H     20.17600000     27.66100000      1.42700000    0.0275   29.5481
     H     21.24600000     26.22300000      1.31100000    0.0135   30.1919
     H     19.46200000     25.84600000     -0.17800000    0.0150   28.6997
     H     19.13000000     24.82400000      1.26200000   -0.0075   28.4236
     H     17.17800000     26.05400000      0.56400000    0.0886   31.5610
     H     17.64600000     26.55400000      2.04600000    0.0835   31.9126
     H     21.27490000     27.85040000      5.48060000    0.0327   28.1422
     H     20.28940000     25.09390000      7.83580000   -0.0146   23.2172
