26
chgs=0 nmr=1 
     N     24.79000000     32.02100000     13.61800000   -0.0731  121.6200
     C     25.14900000     31.60900000     14.98000000   -0.0339  140.2734
     C     25.69800000     32.87600000     15.66900000    0.0062   30.0212
     O     26.15800000     33.73000000     14.89400000   -0.2754  -10.1731
     C     26.31000000     30.59400000     14.96700000    0.0336  170.5031
     N     28.52500000     34.44700000     18.18900000    0.0065  166.9025
     O     27.50700000     32.58700000     18.95800000   -0.2540  -33.6104
     N     25.62100000     32.94500000     16.95000000   -0.0114  138.7423
     C     23.50900000     32.22400000     13.29000000    0.1356   40.6514
     C     27.47500000     33.65100000     18.30400000    0.0028   25.6603
     C     26.17900000     34.12700000     17.65000000   -0.0181  137.0422
     C     25.21400000     34.56500000     18.78000000    0.0203  167.6675
     O     22.54400000     31.94200000     14.03400000   -0.2926  -78.0796
     H     25.50600000     32.15100000     12.93200000    0.1161   26.4898
     H     24.28500000     31.20800000     15.53000000    0.0305   26.6166
     H     27.23500000     31.16400000     14.79900000    0.0258   30.3104
     H     26.34200000     30.12800000     15.96300000    0.0338   30.0146
     H     28.44200000     35.28300000     17.64600000    0.1160   27.2600
     H     25.18900000     32.20800000     17.47000000    0.1235   26.4862
     H     26.36900000     34.95900000     16.95600000    0.0279   26.7618
     H     24.95100000     33.70000000     19.40600000    0.0420   29.8676
     H     25.69000000     35.33700000     19.40200000    0.0337   30.2429
     H     26.29540000     29.77810000     14.22940000    0.0410   30.2956
     H     29.39950000     34.24000000     18.62760000    0.1225   27.5381
     H     23.29520000     32.61130000     12.28290000   -0.0102   23.2603
     H     24.31050000     34.97140000     18.30190000    0.0510   29.9777
