28
chgs=0 nmr=1 
     C     35.11400000     36.56400000     22.90700000    0.0058  161.3464
     C     35.92600000     35.97900000     21.73700000   -0.1931  164.8259
     C     35.00300000     35.08400000     20.92000000    0.0076  161.2388
     C     36.53300000     37.08700000     20.91700000    0.0068  164.7920
     C     38.69300000     34.10600000     17.59500000   -0.0661  160.6761
     C     38.47100000     35.54600000     17.04500000   -0.0633  161.2146
     C     38.14600000     33.93200000     19.02700000   -0.0504  173.4144
     C     36.95800000     35.74600000     16.68000000   -0.0523  172.7313
     H     34.52600000     37.42200000     22.55000000    0.0156   30.7092
     H     35.80200000     36.89500000     23.69900000    0.0197   29.9778
     H     36.73600000     35.36100000     22.15200000    0.0132   29.8182
     H     35.56200000     34.65300000     20.07600000    0.0065   29.6750
     H     34.62000000     34.27400000     21.55700000    0.0214   30.2744
     H     34.16100000     35.67900000     20.53700000    0.0147   30.6304
     H     37.11000000     36.65500000     20.08600000    0.0208   30.0098
     H     35.73300000     37.72600000     20.51500000    0.0158   30.8378
     H     37.20000000     37.68900000     21.55100000    0.0195   30.1460
     H     38.14400000     33.41300000     16.94100000    0.0106   30.3416
     H     38.76200000     36.27900000     17.81200000    0.0227   30.2516
     H     39.08700000     35.69300000     16.14500000    0.0188   29.7026
     H     37.08200000     34.21100000     19.05000000    0.0362   29.3979
     H     38.25700000     32.88200000     19.33700000    0.0259   30.1716
     H     38.70900000     34.57900000     19.71600000    0.0328   30.5621
     H     36.80500000     36.76400000     16.29200000    0.0267   30.2128
     H     36.66600000     35.01400000     15.91300000    0.0249   30.7445
     H     36.34200000     35.60000000     17.57900000    0.0272   29.8670
     H     34.43450000     35.79830000     23.30950000    0.0161   30.3850
     H     39.75750000     33.83520000     17.53530000    0.0159   29.7051
