15
chgs=0 nmr=1 
     C     26.62100000     17.79900000     20.35200000   -0.0806  168.1162
     C     26.01000000     16.37000000     20.28000000    0.1007  156.1457
     N     26.97500000     15.52100000     20.94200000   -0.0753  177.7667
     C     27.60300000     14.42300000     20.65500000   -0.1623   54.4443
     N     27.47900000     13.73300000     19.53700000   -0.2238  119.4308
     N     28.51900000     13.96700000     21.55000000   -0.0650  198.8656
     H     27.54500000     17.79200000     20.94900000    0.0251   30.8971
     H     25.90200000     18.50300000     20.79700000    0.0284   29.8983
     H     25.04200000     16.33600000     20.80100000    0.0258   28.5402
     H     25.87400000     16.05900000     19.23400000    0.0523   27.8295
     H     27.21900000     15.86700000     21.84800000    0.0965   30.3797
     H     28.09800000     12.94800000     19.51000000    0.0488   28.0663
     H     29.05600000     13.14900000     21.34300000    0.1081   29.2419
     H     28.65600000     14.45000000     22.41500000    0.0749   29.3733
     H     26.83860000     18.07860000     19.31060000    0.0465   29.1830
