27
chgs=0 nmr=1 
     N     27.51000000     17.68900000     15.95400000    0.0236  173.0966
     C     30.32000000     16.69800000     19.05100000    0.1442   39.0551
     O     30.19800000     15.65700000     18.36600000   -0.2827 -103.2311
     N     29.34000000     17.59400000     19.07600000   -0.0861  132.7243
     C     28.10800000     17.43900000     18.27600000   -0.0171  138.9195
     C     28.37500000     17.99900000     16.88700000    0.0085   28.0469
     O     29.32600000     18.78600000     16.69000000   -0.2442  -56.6061
     C     26.92600000     18.19100000     18.89200000   -0.0318  150.9927
     C     26.62100000     17.79900000     20.35200000    0.0034  154.5835
     C     26.01000000     16.37000000     20.28000000    0.1242  148.3177
     N     26.97500000     15.52100000     20.94200000   -0.0918  155.2257
     C     27.60300000     14.42300000     20.65500000   -0.0337   51.4281
     N     27.47900000     13.73300000     19.53700000   -0.2402   37.0651
     H     26.75900000     17.07400000     16.19600000    0.1084   27.5534
     H     29.44000000     18.40200000     19.65700000    0.1091   27.4469
     H     27.85100000     16.37300000     18.19200000    0.0573   26.0448
     H     27.14900000     19.26800000     18.86300000    0.0180   29.6617
     H     26.03200000     17.98500000     18.28500000    0.0191   29.9762
     H     27.54500000     17.79200000     20.94900000    0.0038   30.2923
     H     25.90200000     18.50300000     20.79700000    0.0231   29.3054
     H     25.04200000     16.33600000     20.80100000    0.0270   28.0930
     H     25.87400000     16.05900000     19.23400000    0.0434   27.7522
     H     27.21900000     15.86700000     21.84800000    0.1164   29.5906
     H     28.09800000     12.94800000     19.51000000    0.0863   24.5934
     H     27.55320000     18.02870000     15.01450000    0.1199   27.4009
     H     31.24010000     16.89260000     19.62160000   -0.0072   22.9867
     H     28.34420000     14.05400000     21.37920000   -0.0008   23.5156
