29
chgs=0 nmr=1 
     C     36.67100000     34.29600000     27.08900000   -0.0263   29.2903
     O     37.30500000     33.23300000     26.79500000   -0.3095  -75.6458
     N     40.29400000     34.41200000     29.04500000   -0.0015  170.5253
     C     34.23900000     35.35300000     24.97900000    0.1022   45.3199
     O     33.70700000     36.19700000     25.72800000   -0.3038  -55.5609
     N     37.19700000     35.39700000     27.51300000   -0.0288  125.1894
     C     38.66800000     35.50200000     27.68000000   -0.0412  135.8526
     C     39.07600000     34.93100000     29.03100000    0.0232   30.0737
     O     38.29700000     34.94600000     29.99600000   -0.2259  -57.7239
     C     39.08000000     36.94100000     27.40600000    0.0422  157.0232
     C     39.50200000     37.34000000     26.00200000   -0.0530  166.8129
     C     38.68400000     36.64700000     24.92300000   -0.0417  177.9859
     N     34.93000000     34.38400000     25.45100000   -0.0893  144.0084
     C     35.16100000     34.17400000     26.89600000    0.1875  144.0129
     H     40.83900000     34.43500000     28.20700000    0.1122   27.3766
     H     36.61300000     36.17900000     27.72900000    0.1281   26.4861
     H     39.13700000     34.87600000     26.90700000    0.0308   27.1967
     H     38.22400000     37.57700000     27.67600000    0.0185   30.0132
     H     39.92700000     37.16400000     28.07100000    0.0191   29.4284
     H     40.56300000     37.08500000     25.86300000    0.0151   30.0209
     H     39.03200000     36.97300000     23.93200000    0.0316   30.3999
     H     38.80500000     35.55700000     25.01400000    0.0362   30.2536
     H     37.62200000     36.90900000     25.04300000    0.0290   30.5982
     H     35.33500000     33.73400000     24.80800000    0.1182   27.2123
     H     34.63100000     34.92600000     27.50000000    0.0404   26.1818
     H     40.68740000     33.99760000     29.86570000    0.1225   27.6434
     H     34.17030000     35.43990000     23.88460000   -0.0110   23.5267
     H     39.38330000     38.42890000     25.90130000    0.0287   29.7629
     H     34.84230000     33.15910000     27.17590000    0.0466   28.2157
