31
chgs=0 nmr=1 
     C     36.67100000     34.29600000     27.08900000   -0.0287   21.2224
     O     37.30500000     33.23300000     26.79500000   -0.2887  -38.0597
     C     34.71700000     32.76000000     27.28600000    0.0464  168.6415
     C     34.14500000     35.47200000     23.48100000   -0.0076  165.2421
     C     34.23900000     35.35300000     24.97900000   -0.0533   32.2148
     O     33.70700000     36.19700000     25.72800000   -0.3026  -15.0537
     C     37.73800000     31.63700000     23.71200000   -0.0344  166.6066
     C     36.33400000     31.74200000     23.08700000   -0.0386   32.3713
     O     35.57400000     32.61800000     23.48300000   -0.2392  -14.3116
     C     35.11400000     36.56400000     22.90700000   -0.0397  175.8936
     N     36.00000000     30.86000000     22.17200000    0.0057  164.9976
     N     37.19700000     35.39700000     27.51300000    0.0604  171.5076
     N     34.93000000     34.38400000     25.45100000   -0.0405  126.7297
     C     35.16100000     34.17400000     26.89600000   -0.0034  140.5233
     H     33.77000000     32.82600000     27.84100000    0.0210   30.0423
     H     34.56500000     32.17100000     26.37000000    0.0207   30.1588
     H     34.41100000     34.50500000     23.02800000    0.0116   28.5481
     H     37.65300000     31.71100000     24.80600000    0.0907   28.1901
     H     34.52600000     37.42200000     22.55000000    0.0345   29.9783
     H     35.80200000     36.89500000     23.69900000    0.0284   30.5964
     H     36.65600000     30.13900000     21.94800000    0.1185   27.2139
     H     36.61300000     36.17900000     27.72900000    0.1276   26.6857
     H     35.33500000     33.73400000     24.80800000    0.1131   22.5356
     H     34.63100000     34.92600000     27.50000000    0.0120   26.6084
     H     35.46230000     32.25160000     27.91540000    0.0315   29.3901
     H     33.11810000     35.73870000     23.19050000    0.0235   29.6427
     H     38.24310000     30.69940000     23.43680000    0.0075   30.0813
     H     38.30060000     32.50360000     23.33460000    0.0633   29.4493
     H     35.69410000     36.14600000     22.07110000    0.0203   30.4430
     H     35.12530000     30.87040000     21.68750000    0.1229   27.5715
     H     38.18810000     35.46770000     27.62550000    0.1173   27.3820
