32
chgs=0 nmr=1 
     N     28.52500000     34.44700000     18.18900000   -0.1098  138.9344
     C     29.80100000     34.14500000     18.82900000    0.1799  151.7979
     C     30.05200000     35.04200000     20.00400000   -0.0218   27.7992
     O     30.10500000     36.30500000     19.78800000   -0.3335  -48.9912
     C     30.21000000     30.50900000     21.65000000    0.1271   29.9757
     O     29.97800000     31.72600000     21.26900000   -0.2908 -105.0570
     N     30.12400000     34.53300000     21.19100000   -0.0554  123.0468
     C     30.47900000     35.36900000     22.37400000    0.0129  131.1250
     C     31.90100000     34.91000000     22.72800000    0.0032   25.5267
     O     32.19000000     33.69600000     22.63500000   -0.2523  -47.6795
     C     29.47200000     35.18100000     23.49800000   -0.0096  163.8059
     C     28.04900000     35.45400000     23.07100000   -0.0091  177.1371
     N     29.69400000     29.43600000     21.05400000   -0.0314  155.7093
     N     32.76300000     35.83100000     23.09000000    0.0207  169.3371
     C     27.47500000     33.65100000     18.30400000    0.1232   41.7749
     O     27.50700000     32.58700000     18.95800000   -0.2967  -66.7028
     H     28.44200000     35.28300000     17.64600000    0.1137   26.7648
     H     29.80100000     33.10000000     19.17200000    0.0264   25.9172
     H     29.93800000     33.55900000     21.31800000    0.1302   22.3569
     H     30.50500000     36.43000000     22.08400000    0.0118   26.6113
     H     29.51300000     34.11600000     23.77100000    0.0184   29.6987
     H     27.37300000     35.30100000     23.92600000    0.0240   30.4300
     H     27.96500000     36.49300000     22.71900000    0.0263   30.5672
     H     27.77200000     34.76700000     22.25700000    0.0408   29.9788
     H     29.93800000     28.52400000     21.38400000    0.1260   26.8836
     H     32.48200000     36.79100000     23.10200000    0.1132   27.2579
     H     30.59150000     34.25680000     18.07230000    0.0312   28.6931
     H     30.92970000     30.37810000     22.47150000    0.0272   22.6767
     H     29.72350000     35.74030000     24.41120000    0.0100   30.0226
     H     29.06640000     29.52830000     20.28090000    0.1423   26.3342
     H     33.69650000     35.58850000     23.35410000    0.1161   27.5958
     H     26.54180000     33.99370000     17.83310000   -0.0142   23.4210
