16
chgs=0 nmr=1 
     O     36.86100000     37.32000000      9.82200000   -0.2806  336.4214
     C     33.28000000     41.08600000     11.22700000   -0.0243  177.5398
     C     34.76200000     40.79900000     11.47000000   -0.0757  166.4742
     C     35.61400000     40.84700000     10.24000000    0.0362  146.9294
     N     35.10000000     40.07300000      9.10100000   -0.2106  239.2558
     H     36.90400000     38.19400000      9.45200000    0.1265   31.8569
     H     32.75600000     40.14700000     10.99400000    0.0303   30.0600
     H     33.17300000     41.78500000     10.38400000    0.0288   30.2374
     H     35.14400000     41.54500000     12.18200000    0.0207   29.8750
     H     34.85000000     39.79400000     11.91000000    0.0082   29.9525
     H     35.70300000     41.89800000      9.92700000    0.0150   28.9977
     H     36.60900000     40.45600000     10.49800000   -0.0244   28.1323
     H     35.72800000     40.16100000      8.32700000    0.0919   31.7916
     H     35.02300000     39.11000000      9.36000000    0.0754   32.0948
     H     37.11920000     37.35200000     10.76680000    0.1623   30.6149
     H     32.84840000     41.53390000     12.13420000    0.0203   30.3520
