19
chgs=0 nmr=1 
     C     25.34900000     26.87200000     23.64300000    0.0455  148.3203
     C     25.74300000     25.58600000     22.92200000   -0.0644   27.6037
     O     25.32500000     24.48900000     23.37800000   -0.2593  -59.9809
     C     26.07000000     27.02500000     24.96000000   -0.0440  159.0829
     C     27.55300000     27.35600000     24.69500000   -0.0240  147.9406
     C     28.26200000     27.57600000     26.02000000   -0.0278   33.4726
     O     29.18900000     26.84000000     26.33500000   -0.2070  -63.1281
     N     27.77700000     28.58500000     26.73900000   -0.0219  172.3546
     N     26.46500000     25.68900000     21.83300000    0.0208  165.0508
     H     25.55800000     27.73800000     22.99800000   -0.0152   29.9063
     H     25.61000000     27.84000000     25.53800000    0.0049   30.0518
     H     25.99900000     26.08600000     25.52900000    0.0504   29.1383
     H     28.02600000     26.52000000     24.15900000    0.0324   29.3866
     H     27.62300000     28.26900000     24.08500000    0.0133   29.6585
     H     28.17600000     28.80100000     27.63000000    0.1172   27.8839
     H     27.01300000     29.12700000     26.38800000    0.1091   27.2710
     H     26.78200000     26.59400000     21.54900000    0.1090   27.3249
     H     24.26500000     26.76500000     23.79650000    0.0414   28.9146
     H     26.71010000     24.89590000     21.27550000    0.1198   27.5112
