23
chgs=0 nmr=1 
     C     39.83700000     34.27100000      9.99500000    0.1192   36.7041
     O     40.16400000     35.32300000      9.34500000   -0.3034 -123.5769
     N     41.31700000     34.39300000     13.43200000   -0.1157  158.2208
     C     42.34500000     34.26900000     14.43100000    0.1330  150.3259
     C     41.94900000     34.07600000     15.84200000   -0.0285   30.2822
     O     42.82900000     34.00000000     16.73900000   -0.2558  -62.2209
     N     40.64200000     33.91600000     16.11200000   -0.0179  164.5627
     N     39.65500000     34.33500000     11.28500000   -0.0806  138.0788
     C     39.67600000     35.54700000     12.07200000    0.0171  144.4639
     C     40.67500000     35.52700000     13.20000000    0.0093   30.7706
     O     40.81400000     36.52800000     13.91100000   -0.2280  -47.4369
     C     38.29000000     35.81400000     12.69800000    0.0052  164.5708
     H     41.07700000     33.58800000     12.89000000    0.0938   26.4866
     H     42.96700000     33.40700000     14.14900000    0.0554   28.2759
     H     42.95000000     35.18700000     14.38800000    0.0724   27.1206
     H     39.96500000     33.93300000     15.37700000    0.0977   26.4925
     H     39.48700000     33.47600000     11.76900000    0.1048   27.8462
     H     39.91600000     36.39600000     11.41500000    0.0721   25.8666
     H     38.04100000     34.96600000     13.35300000   -0.0005   30.7981
     H     38.35600000     36.73400000     13.29800000    0.0632   29.1363
     H     39.81560000     33.32660000      9.43140000    0.0134   22.5883
     H     40.35930000     33.78010000     17.06150000    0.1263   27.3644
     H     37.47370000     35.93710000     11.97100000    0.0475   29.9984
