12
chgs=0 nmr=1 
     C     21.11000000     24.11100000     10.17300000    0.0788   37.9991
     O     21.84100000     23.19800000      9.68600000   -0.2824  -89.8727
     S     23.93000000     23.95900000      5.90400000   -0.1440  677.2969
     C     24.44700000     23.98400000      7.62000000   -0.1740  181.4934
     N     20.29100000     24.87500000      9.50700000   -0.0050  166.6780
     H     23.69300000     23.47500000      8.23800000    0.1021   28.8551
     H     25.41300000     23.46700000      7.71900000    0.0638   29.3858
     H     24.55300000     25.02600000      7.95600000    0.0580   29.5763
     H     19.77500000     25.56800000     10.01100000    0.1219   27.5477
     H     21.16330000     24.22050000     11.26620000   -0.0011   22.9918
     H     24.95960000     24.61090000      5.34690000    0.0542   31.1193
     H     20.15030000     24.80670000      8.51930000    0.1278   27.0760
