17
chgs=0 nmr=1 
     C     23.21200000     32.76200000     11.89100000   -0.0266  161.7637
     C     22.69900000     34.26700000     11.98500000    0.0228  117.2948
     O     22.49500000     34.69000000     10.58900000   -0.2906  267.1951
     C     23.72700000     35.13100000     12.72200000   -0.0271  161.4434
     C     26.21900000     37.68400000     14.30700000   -0.1793  194.3395
     H     24.14700000     32.76300000     11.31200000    0.0299   30.1936
     H     21.74500000     34.28200000     12.53300000    0.0091   27.1911
     H     22.18600000     35.58800000     10.57200000    0.1462   31.9425
     H     23.36200000     36.16700000     12.78000000    0.0221   30.2334
     H     23.87600000     34.73700000     13.73800000    0.0252   30.1513
     H     24.68200000     35.10900000     12.17700000    0.0345   30.1366
     H     25.70800000     37.42000000     13.36900000    0.0445   31.1290
     H     25.81700000     37.07300000     15.12800000    0.0397   31.2406
     H     22.48450000     32.09600000     11.40400000    0.0357   29.8284
     H     23.42580000     32.37470000     12.89810000    0.0201   30.4528
     H     27.27980000     37.41810000     14.18880000    0.0477   30.9475
     H     25.97730000     38.73380000     14.52920000    0.0461   30.9763
