26
chgs=0 nmr=1 
     N     27.51000000     17.68900000     15.95400000   -0.0503  148.4866
     C     27.57400000     18.19200000     14.56300000    0.0262  128.5221
     C     26.48200000     19.28000000     14.43200000    0.0054   34.2605
     O     25.60900000     19.38800000     15.28700000   -0.2077  -55.3622
     C     27.29900000     17.05500000     13.53300000    0.0413  112.5466
     O     25.92500000     16.61100000     13.91300000   -0.2814  258.9359
     C     28.23600000     15.86400000     13.55800000    0.0380  168.0171
     C     28.10800000     17.43900000     18.27600000    0.0031  156.4790
     C     28.37500000     17.99900000     16.88700000   -0.0249   27.9827
     O     29.32600000     18.78600000     16.69000000   -0.2756  -46.2892
     C     26.92600000     18.19100000     18.89200000   -0.0437  174.0536
     N     26.58500000     20.06300000     13.37800000    0.0105  175.9060
     H     26.75900000     17.07400000     16.19600000    0.1163   26.0105
     H     28.56000000     18.63600000     14.36100000    0.0363   26.9463
     H     27.28300000     17.48700000     12.52200000    0.0003   27.1645
     H     25.65000000     15.90600000     13.33900000    0.1502   31.8451
     H     27.93200000     15.14100000     12.78700000    0.0265   30.3634
     H     29.26400000     16.20200000     13.35900000    0.0307   30.1642
     H     28.19300000     15.38400000     14.54700000    0.0322   29.9127
     H     27.85100000     16.37300000     18.19200000    0.0106   29.2746
     H     27.14900000     19.26800000     18.86300000    0.0416   29.9948
     H     26.03200000     17.98500000     18.28500000    0.0321   29.8740
     H     27.36400000     19.94300000     12.76300000    0.1059   27.6006
     H     29.02550000     17.55440000     18.87180000    0.0282   29.3391
     H     26.70840000     17.91140000     19.93340000    0.0296   30.1660
     H     25.91220000     20.77310000     13.17030000    0.1186   27.6021
