26
chgs=0 nmr=1 
     C     20.14200000     21.59000000     15.14900000    0.1342   39.3023
     O     19.49900000     22.64500000     15.32100000   -0.2679 -115.3509
     N     20.71700000     22.96400000     12.26000000   -0.0775  133.3155
     C     21.18400000     24.26300000     11.69000000    0.0294  127.8439
     C     21.11000000     24.11100000     10.17300000    0.0078   24.9988
     O     21.84100000     23.19800000      9.68600000   -0.2835  -45.3893
     C     22.65000000     24.51600000     12.17200000   -0.0386  157.3677
     C     22.66200000     24.81900000     13.69900000   -0.0209  174.3159
     N     19.99300000     20.88400000     14.04900000   -0.1320  151.5092
     C     19.06500000     21.35200000     12.99900000    0.1600  144.4232
     C     19.44200000     22.74500000     12.51000000    0.0001   34.7119
     O     18.57100000     23.61000000     12.28900000   -0.2595  -67.6081
     N     20.29100000     24.87500000      9.50700000    0.0467  167.1971
     H     21.38500000     22.24600000     12.45600000    0.0992   26.8886
     H     20.53700000     25.08800000     12.02200000    0.0141   27.5146
     H     23.21600000     23.58600000     12.01300000    0.0250   29.6157
     H     22.10700000     25.74900000     13.89000000    0.0312   30.5055
     H     22.18400000     23.98900000     14.23900000    0.0277   30.3028
     H     20.50600000     20.03400000     13.92400000    0.1170   26.8165
     H     19.16200000     20.67100000     12.14100000    0.0402   28.2957
     H     19.77500000     25.56800000     10.01100000    0.1223   26.8763
     H     20.82360000     21.26920000     15.95060000   -0.0006   22.8210
     H     23.16720000     25.32030000     11.62840000    0.0273   29.7136
     H     23.69790000     24.93390000     14.05070000    0.0285   30.3885
     H     18.01610000     21.30240000     13.32660000    0.0500   27.7119
     H     20.15030000     24.80670000      8.51930000    0.1198   27.4104
