16
chgs=0 nmr=1 
     C     40.16800000     30.02600000     19.91800000    0.1430   40.5195
     O     39.26400000     30.66200000     20.52100000   -0.2993 -109.7948
     N     40.05900000     28.75800000     19.60700000   -0.2716  125.5749
     C     38.81700000     28.02000000     19.88900000    0.1726  144.1472
     C     39.09000000     26.62900000     19.32500000   -0.0832  163.2785
     C     40.08200000     26.90400000     18.19800000   -0.0666  160.4105
     C     41.03500000     27.90900000     18.87900000    0.1507  140.8152
     H     38.00200000     28.46900000     19.30300000    0.0282   28.1323
     H     39.53200000     25.97200000     20.08900000    0.0305   29.7491
     H     38.16800000     26.17200000     18.93700000    0.0320   29.4378
     H     40.61100000     25.98900000     17.89400000    0.0297   29.5478
     H     39.58500000     27.34800000     17.32300000    0.0396   29.7630
     H     41.73000000     27.40700000     19.56800000    0.0351   28.3447
     H     41.60700000     28.49000000     18.14100000    0.0344   27.8728
     H     41.10530000     30.55160000     19.68310000   -0.0170   22.9936
     H     38.52760000     28.04050000     20.95010000    0.0417   27.8820
