35
chgs=0 nmr=1 
     C     25.74300000     25.58600000     22.92200000    0.1292   39.3324
     O     25.32500000     24.48900000     23.37800000   -0.2976  -89.7802
     N     26.46500000     25.68900000     21.83300000   -0.0659  133.9031
     C     26.82600000     24.52100000     21.01200000   -0.0419  141.5216
     C     27.99400000     23.78100000     21.64300000    0.0329   31.7644
     O     28.90400000     24.44400000     22.09800000   -0.2104  -45.7990
     C     27.04300000     24.99200000     19.57100000    0.0159  158.9749
     C     25.93100000     25.84400000     18.95900000   -0.0257  168.3705
     C     24.57700000     25.19000000     19.07900000   -0.0601  179.1069
     C     22.94500000     21.95100000     17.78500000    0.0200   72.5214
     C     24.27200000     21.54400000     17.64400000   -0.0063   66.2713
     C     22.43700000     22.15700000     19.06500000    0.0021   63.9767
     C     25.05200000     21.28500000     18.77600000   -0.0287   85.0204
     C     23.20400000     21.90700000     20.19200000    0.0154   78.1964
     C     24.51700000     21.47000000     20.03000000    0.1156   42.5191
     O     25.24800000     21.30200000     21.19100000   -0.1488  201.4116
     N     27.94200000     22.44800000     21.64800000   -0.0034  166.6352
     H     26.78200000     26.59400000     21.54900000    0.1159   27.2351
     H     25.96700000     23.83400000     21.00400000    0.0316   27.2305
     H     27.96900000     25.58500000     19.54900000    0.0183   29.8712
     H     27.16400000     24.09800000     18.94200000    0.0101   30.3919
     H     25.90600000     26.81600000     19.47400000    0.0001   30.4060
     H     23.81400000     25.84000000     18.62600000    0.0204   31.1403
     H     24.59000000     24.22100000     18.55800000    0.0404   32.6707
     H     24.33900000     25.03100000     20.14100000    0.0503   30.9954
     H     24.69800000     21.42900000     16.65800000   -0.0091   24.4250
     H     21.42600000     22.51800000     19.18200000   -0.0068   24.3278
     H     26.07000000     20.94100000     18.66600000   -0.0367   25.1588
     H     22.79100000     22.04900000     21.18000000   -0.0027   24.4181
     H     26.12400000     21.00400000     20.97400000    0.1540   28.8573
     H     27.17100000     21.98000000     21.21600000    0.0449   26.4723
     H     25.45900000     26.51300000     23.44170000   -0.0098   23.2096
     H     26.12640000     26.01570000     17.89020000    0.0215   30.2630
     H     22.31860000     22.17170000     16.90810000   -0.0045   24.3820
     H     28.66760000     21.91310000     22.08080000    0.1199   27.5701
