32
chgs=0 nmr=1 
     N     37.63300000     26.54300000     11.86700000    0.0044  158.9746
     C     38.14800000     30.98100000     13.06900000    0.1331   41.6731
     O     38.54400000     32.15000000     12.85600000   -0.2705 -105.9073
     N     38.88300000     30.11000000     13.71300000   -0.0858  124.6548
     C     40.26900000     30.50800000     14.11500000    0.0501  128.5295
     C     41.09200000     30.80800000     12.85100000   -0.0414   28.3796
     O     41.82800000     31.80800000     12.68100000   -0.2443  -67.3690
     C     40.99600000     29.39900000     14.86500000   -0.0528  157.4260
     C     42.44500000     29.84800000     15.18200000    0.0034  154.1836
     C     43.09000000     28.82800000     16.09500000   -0.0445   30.5060
     O     42.77000000     27.65500000     15.90600000   -0.2455  -47.5397
     N     43.89800000     29.25200000     17.05000000    0.0072  169.8396
     O     39.70400000     27.34600000     12.27700000   -0.2814  -78.7829
     C     38.79400000     25.76100000     13.88000000   -0.0258  168.7086
     C     38.72800000     26.59100000     12.61100000   -0.0429   23.2061
     N     41.00100000     29.87800000     11.93100000    0.0203  165.0166
     H     36.89700000     25.91700000     12.12400000    0.1180   26.9114
     H     38.52700000     29.20100000     13.93100000    0.1086   27.0871
     H     40.23000000     31.41000000     14.74400000    0.0258   27.7291
     H     40.46600000     29.18400000     15.80400000    0.0163   30.0778
     H     41.02200000     28.49200000     14.24300000    0.0504   28.5143
     H     43.02100000     29.92200000     14.24800000    0.0739   28.7951
     H     42.42600000     30.82900000     15.68000000    0.0074   29.7796
     H     44.30200000     28.59800000     17.69000000    0.1152   27.7253
     H     44.10600000     30.22700000     17.13300000    0.1158   27.1699
     H     39.53500000     26.22600000     14.54600000    0.0776   28.9316
     H     40.44300000     29.06500000     12.10000000    0.0845   24.6042
     H     37.52340000     27.11700000     11.05550000    0.1302   26.9248
     H     37.13260000     30.68650000     12.76520000   -0.0296   23.2669
     H     37.82360000     25.74750000     14.39780000    0.0374   29.5635
     H     39.14480000     24.74290000     13.65570000    0.0761   28.9822
     H     41.48510000     29.97520000     11.06140000    0.1087   27.7178
