17
chgs=0 nmr=1 
     C     31.67700000     30.27500000      6.63900000    0.0106  181.2998
     C     31.56200000     29.68600000      8.04500000   -0.0725  162.6833
     C     32.63100000     29.44400000      9.06000000   -0.1438  163.7240
     C     33.81400000     30.39000000      9.03000000    0.0141  170.9530
     C     31.94500000     29.44900000     10.43600000   -0.0040  157.6082
     H     32.72700000     30.46400000      6.36900000    0.0197   30.0940
     H     30.84400000     30.34400000      8.55700000    0.0022   30.1031
     H     31.10600000     28.69700000      7.88900000    0.0122   29.1689
     H     33.02000000     28.42800000      8.89700000    0.0032   29.7831
     H     34.52800000     30.11100000      9.81900000    0.0196   30.3939
     H     34.30900000     30.32700000      8.05000000    0.0230   29.9588
     H     33.46500000     31.41900000      9.19900000    0.0137   30.8614
     H     32.69500000     29.27400000     11.22100000    0.0135   30.3005
     H     31.46200000     30.42300000     10.60100000    0.0208   30.8851
     H     31.18600000     28.65300000     10.47000000    0.0224   30.1031
     H     31.07410000     31.19490000      6.65950000    0.0235   30.0153
     H     31.20720000     29.56700000      5.94040000    0.0217   30.1572
