14
chgs=0 nmr=1 
     C     30.92500000     34.30400000     17.75300000   -0.0041  160.7172
     C     32.34500000     34.18300000     18.35800000   -0.1857  163.1213
     C     32.55500000     32.78300000     18.87000000    0.0151  163.2322
     C     33.36100000     34.49100000     17.24500000   -0.0015  160.8143
     H     30.79800000     33.52100000     16.99100000    0.0154   30.7724
     H     30.82500000     35.29300000     17.28200000    0.0177   30.2297
     H     32.46000000     34.90800000     19.17700000    0.0153   29.8052
     H     33.56400000     32.69700000     19.30000000    0.0181   30.1501
     H     31.80600000     32.56000000     19.64400000    0.0188   30.1199
     H     32.44800000     32.06900000     18.04000000    0.0146   30.7586
     H     34.38200000     34.41200000     17.64800000    0.0191   30.1833
     H     33.23400000     33.77100000     16.42300000    0.0166   30.7097
     H     33.19300000     35.51100000     16.86800000    0.0204   30.1827
     H     30.13450000     34.19220000     18.50970000    0.0202   30.1746
