37
chgs=0 nmr=1 
     N     20.71700000     22.96400000     12.26000000   -0.0907  120.9277
     C     21.18400000     24.26300000     11.69000000    0.0861  125.4872
     C     21.11000000     24.11100000     10.17300000   -0.0093   25.2998
     O     21.84100000     23.19800000      9.68600000   -0.2816  -42.1832
     C     22.65000000     24.51600000     12.17200000   -0.1756  145.7520
     C     22.66200000     24.81900000     13.69900000   -0.0007  158.2513
     C     23.37600000     25.64500000     11.40900000    0.0123  174.1562
     C     24.12300000     24.98100000     14.19500000   -0.0325  173.6747
     N     24.24000000     19.23300000     12.24600000   -0.0336  168.2615
     N     20.29100000     24.87500000      9.50700000    0.0545  164.9489
     O     23.26400000     20.95100000     13.32900000   -0.2094  -36.6338
     C     25.59400000     21.10900000     13.07200000   -0.0518  156.0902
     C     24.24100000     20.43600000     12.85700000   -0.0141   31.8704
     O     18.57100000     23.61000000     12.28900000   -0.3061  -66.1868
     C     26.08400000     21.88800000     11.83300000   -0.0473  176.0641
     C     19.44200000     22.74500000     12.51000000    0.1340   41.2254
     H     21.38500000     22.24600000     12.45600000    0.1279   25.9774
     H     20.53700000     25.08800000     12.02200000   -0.0044   27.5187
     H     23.21600000     23.58600000     12.01300000    0.0310   29.3576
     H     22.10700000     25.74900000     13.89000000    0.0092   30.5773
     H     22.18400000     23.98900000     14.23900000    0.0172   29.2323
     H     24.39600000     25.75900000     11.80600000    0.0282   29.5343
     H     23.42500000     25.39200000     10.34000000    0.0390   30.1282
     H     22.82500000     26.58800000     11.53800000    0.0101   31.1862
     H     24.12300000     25.19500000     15.27400000    0.0238   30.1777
     H     24.68000000     24.05100000     14.00600000    0.0241   30.5611
     H     24.60300000     25.81200000     13.65700000    0.0250   29.8176
     H     25.09100000     18.79700000     11.95400000    0.1162   26.9550
     H     19.77500000     25.56800000     10.01100000    0.1204   26.8876
     H     25.51600000     21.80500000     13.92000000    0.0478   29.2239
     H     26.14900000     21.16800000     11.00400000    0.0172   30.2882
     H     25.31800000     22.64300000     11.60300000    0.0512   29.7020
     H     23.35340000     18.79510000     12.09710000    0.1210   27.7209
     H     20.15030000     24.80670000      8.51930000    0.1172   27.3383
     H     26.33400000     20.32790000     13.30050000    0.0152   29.2832
     H     27.04990000     22.41200000     11.88270000    0.0392   30.1574
     H     19.16980000     21.73940000     12.86300000   -0.0106   23.4073
