24
chgs=0 nmr=1 
     N     37.63300000     26.54300000     11.86700000   -0.1076  129.7000
     C     37.47100000     27.39100000     10.66800000    0.0232  129.8755
     C     37.44100000     28.88200000     11.05200000    0.0264   26.3741
     O     38.02000000     29.77200000     10.38200000   -0.2292  -78.6589
     C     36.19300000     27.05800000      9.91100000   -0.0518  162.6023
     C     36.15300000     25.62000000      9.40900000   -0.0007  176.2965
     N     36.81100000     29.17000000     12.19200000   -0.0105  171.3310
     C     38.72800000     26.59100000     12.61100000    0.1389   34.0970
     O     39.70400000     27.34600000     12.27700000   -0.2714 -137.3771
     C     41.39800000     28.78000000      9.81000000   -0.1711  192.6420
     H     36.89700000     25.91700000     12.12400000    0.1123   26.8923
     H     38.32600000     27.22700000      9.99500000    0.0425   27.2614
     H     35.33700000     27.21800000     10.58200000    0.0039   30.1592
     H     36.11200000     27.73300000      9.04600000    0.0501   29.2552
     H     36.87800000     25.50100000      8.59000000    0.0404   30.2603
     H     36.41500000     24.94000000     10.23300000    0.0061   30.4915
     H     36.39600000     28.44100000     12.73600000    0.0933   26.9501
     H     41.23000000     27.91100000     10.46300000    0.0510   30.1138
     H     40.50500000     28.95100000      9.19100000    0.0434   30.6016
     H     35.14570000     25.37450000      9.04150000    0.0392   30.1649
     H     36.75670000     30.12000000     12.49940000    0.1242   27.6567
     H     38.77580000     25.98950000     13.53070000    0.0055   22.8447
     H     41.62820000     29.67330000     10.40920000    0.0324   30.9882
     H     42.28190000     28.61950000      9.17520000    0.0096   31.5042
