31
chgs=0 nmr=1 
     C     29.27900000     23.22700000      5.64100000    0.1155   42.2394
     O     28.47800000     23.52200000      4.72500000   -0.2876  -54.0558
     N     29.38000000     22.05700000      6.23200000   -0.0680  130.8355
     C     28.46800000     20.94000000      5.98000000   -0.0159  142.5572
     C     27.81900000     20.60900000      7.31600000    0.0836   33.7026
     O     28.44900000     20.67400000      8.36000000   -0.2509  -24.5875
     C     29.21300000     19.69700000      5.50600000    0.0138  160.7651
     C     29.72800000     19.75500000      4.06000000    0.0192  151.3424
     C     28.75400000     20.06100000      2.97800000    0.0930   -3.2975
     O     27.54600000     19.99200000      2.98500000   -0.1737 -301.2476
     N     26.55900000     20.22000000      7.28800000   -0.2929  132.3814
     C     25.82900000     19.82500000      8.49400000    0.1752  142.4518
     C     24.46900000     19.33200000      7.95200000   -0.0734  162.4446
     C     24.29900000     20.13400000      6.70400000   -0.0451  161.7511
     C     25.71400000     20.10800000      6.07300000    0.1233  136.0234
     H     30.12100000     21.92300000      6.89000000    0.1158   26.8931
     H     27.69800000     21.22000000      5.24600000    0.0505   25.6066
     H     30.07700000     19.54500000      6.16900000    0.0205   30.2581
     H     28.53000000     18.83800000      5.59000000    0.0262   29.5199
     H     30.51000000     20.52800000      4.02300000    0.0378   28.6570
     H     30.17100000     18.77400000      3.83200000    0.0582   29.1644
     H     25.66900000     20.69300000      9.15000000    0.0334   28.1329
     H     24.49800000     18.25500000      7.73000000    0.0277   29.6421
     H     23.65900000     19.53700000      8.66800000    0.0302   29.3749
     H     23.56000000     19.67000000      6.03400000    0.0291   29.3610
     H     23.98900000     21.16400000      6.93600000    0.0380   29.5803
     H     25.90100000     19.16700000      5.53500000    0.0347   27.9143
     H     25.87000000     20.95700000      5.39100000    0.0668   27.2070
     H     30.00160000     23.95610000      6.03630000   -0.0154   23.7173
     H     29.25650000     20.37350000      2.05070000   -0.0031   21.6841
     H     26.34830000     19.02780000      9.04610000    0.0334   27.9409
