29
chgs=0 nmr=1 
     N     20.71700000     22.96400000     12.26000000   -0.0805  119.0556
     C     21.18400000     24.26300000     11.69000000    0.0557  131.5356
     C     21.11000000     24.11100000     10.17300000    0.0271   27.9571
     O     21.84100000     23.19800000      9.68600000   -0.2971  -24.0488
     C     22.65000000     24.51600000     12.17200000   -0.0433  158.2797
     N     20.92400000     25.86200000      6.00600000   -0.0042  173.2175
     C     23.37600000     25.64500000     11.40900000   -0.0348  177.7478
     C     20.82200000     25.91400000      7.33200000   -0.0019   27.8101
     O     21.32300000     26.83000000      8.00800000   -0.2284  -78.6705
     N     20.29100000     24.87500000      9.50700000   -0.0192  122.8309
     C     19.44200000     22.74500000     12.51000000    0.1326   42.2664
     O     18.57100000     23.61000000     12.28900000   -0.2997  -73.4175
     C     20.08100000     24.77300000      8.03300000   -0.0116  140.0332
     C     18.59900000     24.73600000      7.72700000    0.0237  171.3632
     H     21.38500000     22.24600000     12.45600000    0.1180   26.8187
     H     20.53700000     25.08800000     12.02200000    0.0105   27.1194
     H     23.21600000     23.58600000     12.01300000    0.0222   29.5087
     H     20.47700000     25.11200000      5.51900000    0.1109   27.4810
     H     24.39600000     25.75900000     11.80600000    0.0283   30.3914
     H     23.42500000     25.39200000     10.34000000    0.0577   30.1368
     H     22.82500000     26.58800000     11.53800000    0.0285   30.4794
     H     19.77500000     25.56800000     10.01100000    0.1227   26.4382
     H     20.52200000     23.82600000      7.68800000    0.0469   26.5450
     H     18.12100000     25.48200000      8.37800000    0.0314   30.2444
     H     18.48300000     25.03900000      6.67600000    0.0085   30.3606
     H     22.65850000     24.73010000     13.25090000    0.0254   29.7402
     H     21.43000000     26.54290000      5.47650000    0.1256   27.3772
     H     19.16980000     21.73940000     12.86300000   -0.0099   23.5139
     H     18.03730000     23.79840000      7.85160000    0.0549   29.6948
