22
chgs=0 nmr=1 
     C     35.92600000     35.97900000     21.73700000   -0.1752  193.3646
     C     38.52800000     32.85400000     23.18200000   -0.1006  174.3541
     C     39.91900000     32.85400000     23.84000000   -0.0440  160.0730
     C     40.76000000     34.03600000     23.39400000   -0.0594   34.0720
     O     41.97500000     34.00800000     23.62400000   -0.2433  -57.0834
     N     40.14000000     35.00700000     22.77500000    0.0104  160.4534
     C     38.68400000     36.64700000     24.92300000   -0.1739  188.1814
     H     36.73600000     35.36100000     22.15200000    0.0286   31.2011
     H     38.63400000     32.78100000     22.09000000    0.0417   30.3602
     H     37.99600000     33.78200000     23.43800000    0.0392   30.5205
     H     39.79500000     32.89900000     24.93200000    0.0539   29.2860
     H     40.44000000     31.92400000     23.56800000    0.0480   29.2628
     H     40.65400000     35.80100000     22.45000000    0.1177   27.6558
     H     39.15200000     34.95500000     22.62700000    0.1078   26.3432
     H     39.03200000     36.97300000     23.93200000    0.0271   31.0456
     H     38.80500000     35.55700000     25.01400000    0.0483   31.0117
     H     37.62200000     36.90900000     25.04300000    0.0407   30.8787
     H     35.34590000     36.39700000     22.57290000    0.0491   30.9133
     H     35.25950000     35.33270000     21.14700000    0.0506   30.8746
     H     36.36930000     36.78820000     21.13810000    0.0489   30.9176
     H     37.96540000     31.98740000     23.55940000    0.0341   29.9719
     H     39.27560000     37.14820000     25.70330000    0.0502   30.6445
