35
chgs=0 nmr=1 
     C     26.26600000     25.41300000      2.84200000    0.0511  149.2901
     C     26.91300000     26.63900000      3.53100000   -0.0595   35.7467
     O     27.88600000     26.46300000      4.26300000   -0.2548  -31.8904
     C     25.11200000     24.88000000      3.64900000   -0.0223  165.7630
     C     25.35300000     24.86000000      5.13400000   -0.1358  148.4808
     S     23.93000000     23.95900000      5.90400000   -0.1251  576.1616
     C     24.44700000     23.98400000      7.62000000   -0.1223  170.9581
     N     26.84900000     29.65600000      6.21700000   -0.1077  134.5944
     C     25.49100000     27.77100000      8.28700000   -0.0845  170.6660
     C     26.23500000     30.05800000      7.49700000    0.0837  146.3278
     C     26.34400000     29.05000000      8.64500000   -0.0433  161.9320
     N     26.33500000     27.77000000      3.25800000   -0.0655  149.9981
     C     26.85000000     29.02100000      3.89800000    0.1363  145.2938
     C     26.10000000     29.25300000      5.20200000    0.0253   27.7666
     O     24.86500000     29.02400000      5.33000000   -0.2774  -49.5990
     H     25.88000000     25.74300000      1.86700000    0.0043   29.3516
     H     24.23300000     25.51000000      3.45100000    0.0240   29.6650
     H     24.90700000     23.85100000      3.31900000    0.0331   29.7531
     H     26.29500000     24.33800000      5.35600000    0.0527   29.0542
     H     25.40300000     25.88800000      5.52200000    0.1056   29.0424
     H     23.69300000     23.47500000      8.23800000    0.0646   29.8009
     H     25.41300000     23.46700000      7.71900000    0.0609   29.3283
     H     24.55300000     25.02600000      7.95600000    0.0727   29.1859
     H     27.84300000     29.68800000      6.11500000    0.1171   26.6476
     H     25.56300000     27.04000000      9.10600000    0.0333   30.3847
     H     24.43900000     28.06000000      8.14500000    0.0422   30.0621
     H     25.87600000     27.32100000      7.36000000    0.0611   30.0019
     H     25.16500000     30.24200000      7.32000000    0.0414   27.1527
     H     25.87900000     29.50700000      9.53100000    0.0239   29.8541
     H     25.55800000     27.80400000      2.63000000    0.1202   26.2132
     H     27.91400000     28.87800000      4.13600000    0.0246   27.1559
     H     27.06770000     24.67930000      2.67180000    0.0295   29.3721
     H     26.69170000     31.02500000      7.75460000    0.0190   28.6887
     H     27.39250000     28.83400000      8.89820000    0.0209   30.0107
     H     26.76460000     29.84380000      3.17300000    0.0506   28.3457
