16
chgs=0 nmr=1 
     N     41.18900000     32.08500000     19.03100000   -0.2997  123.2974
     C     41.46100000     30.75100000     19.59400000    0.1829  143.6823
     C     42.19500000     31.14200000     20.91300000   -0.0947  160.9647
     C     42.90400000     32.41400000     20.55300000   -0.0604  163.1997
     C     41.82200000     33.18800000     19.81300000    0.1566  140.0199
     C     40.44900000     32.27800000     17.94500000    0.1494   40.2292
     O     39.93600000     31.33600000     17.31500000   -0.2794 -105.8681
     H     42.11200000     30.14800000     18.94400000    0.0388   28.1854
     H     41.47600000     31.30900000     21.72900000    0.0313   29.7691
     H     42.91200000     30.36200000     21.21000000    0.0292   29.3890
     H     43.23600000     32.95400000     21.45200000    0.0275   29.6290
     H     43.76900000     32.21800000     19.90300000    0.0360   29.8479
     H     41.10900000     33.65500000     20.50800000    0.0309   28.3182
     H     42.25100000     33.95800000     19.15500000    0.0331   27.8413
     H     40.52370000     30.22540000     19.82890000    0.0377   27.8017
     H     40.28750000     33.31930000     17.62930000   -0.0193   23.0771
