27
chgs=0 nmr=1 
     O     29.58600000     43.57000000     19.48300000   -0.2441  -54.9777
     C     28.97800000     43.96000000     14.67800000    0.1420  148.0726
     C     29.60400000     43.50700000     13.39300000   -0.0574   34.5804
     O     29.21900000     43.98100000     12.30100000   -0.2526  -49.2210
     N     30.56300000     42.62300000     13.49500000    0.0172  173.4850
     N     30.99100000     42.57100000     17.99800000   -0.1741  140.0977
     C     29.66400000     39.83900000     17.43400000    0.1067   41.6422
     O     28.85000000     40.56500000     16.85900000   -0.2661  -71.7788
     C     31.42200000     43.94000000     17.55300000    0.1741  146.1473
     C     30.75500000     44.35100000     16.27700000   -0.0588   35.7916
     O     31.20700000     45.26800000     15.56600000   -0.2533  -52.6137
     N     29.72100000     43.67300000     15.88500000   -0.1045  152.2069
     N     30.13200000     40.06900000     18.64200000   -0.1416  145.8670
     C     29.60700000     41.18000000     19.46700000    0.1504  146.4269
     C     30.07500000     42.53800000     18.98400000    0.0123   33.9095
     H     27.99600000     43.47100000     14.76400000    0.0572   28.2508
     H     28.84100000     45.05000000     14.61900000    0.0587   27.2976
     H     30.87700000     42.35700000     14.40600000    0.0895   26.9559
     H     31.36100000     41.73700000     17.58800000    0.1143   25.5580
     H     31.15100000     44.66200000     18.33700000    0.0791   26.0394
     H     29.42000000     42.90600000     16.45100000    0.1208   25.7828
     H     30.85500000     39.48300000     19.00900000    0.1284   26.8831
     H     28.51100000     41.16800000     19.37000000    0.0707   26.9444
     H     30.99400000     42.20360000     12.69610000    0.1172   27.8076
     H     30.06730000     38.97920000     16.87900000    0.0060   23.0757
     H     32.51930000     43.92450000     17.47690000    0.0448   28.2726
     H     29.83110000     40.97170000     20.52360000    0.0632   27.9870
