32
chgs=0 nmr=1 
     C     25.77800000     30.43600000     23.35600000   -0.1858  191.8960
     C     26.07000000     27.02500000     24.96000000   -0.0544  171.5879
     C     27.55300000     27.35600000     24.69500000   -0.0476  154.9237
     C     28.26200000     27.57600000     26.02000000   -0.0393   31.6032
     O     29.18900000     26.84000000     26.33500000   -0.1999  -75.6059
     N     27.77700000     28.58500000     26.73900000   -0.0442  159.3682
     C     29.41200000     30.79600000     24.59800000   -0.0670  171.3745
     C     29.27100000     31.31400000     26.01600000    0.0811  153.0721
     N     27.87500000     31.31700000     26.44300000   -0.1395  180.3272
     C     27.13200000     32.42300000     26.57400000   -0.1178   49.5225
     N     27.63000000     33.65600000     26.46100000   -0.2148  103.2124
     N     25.81000000     32.29900000     26.73200000   -0.0243  200.4160
     H     26.50600000     30.65400000     24.15100000    0.0265   30.4903
     H     24.80000000     30.21100000     23.80600000    0.0325   31.1463
     H     26.12100000     29.56900000     22.77200000    0.0559   31.0412
     H     25.61000000     27.84000000     25.53800000    0.0128   30.6349
     H     25.99900000     26.08600000     25.52900000    0.0456   29.9292
     H     28.02600000     26.52000000     24.15900000    0.0363   29.3689
     H     27.62300000     28.26900000     24.08500000    0.0352   28.6911
     H     28.17600000     28.80100000     27.63000000    0.1308   27.4002
     H     27.01300000     29.12700000     26.38800000    0.1205   26.5769
     H     28.75300000     31.37500000     23.93500000    0.0465   30.1523
     H     29.12000000     29.73600000     24.57000000    0.0300   30.2026
     H     29.85100000     30.66900000     26.69200000    0.0154   28.8389
     H     29.66200000     32.34100000     26.06300000    0.0526   27.0599
     H     27.44700000     30.43800000     26.65100000    0.0513   27.6721
     H     26.91600000     34.35400000     26.51200000    0.0533   27.4262
     H     25.23100000     33.11400000     26.76200000    0.1126   28.6674
     H     25.40000000     31.39100000     26.82000000    0.0737   29.1898
     H     25.68460000     31.30960000     22.69410000    0.0518   30.8216
     H     25.54450000     26.91350000     24.00010000    0.0394   29.9549
     H     30.45110000     30.89380000     24.25040000    0.0307   30.3739
