22
chgs=0 nmr=1 
     C     31.82700000     27.26200000      2.89400000    0.0351  172.3478
     C     31.67700000     30.27500000      6.63900000    0.0147  157.7974
     C     31.02200000     29.28800000      5.66500000   -0.0307   33.1145
     O     29.80900000     29.39500000      5.54500000   -0.2496  -19.1613
     C     31.56200000     29.68600000      8.04500000   -0.0631  178.8768
     N     30.31000000     25.45800000      5.38400000   -0.0116  166.5407
     N     31.83400000     28.41200000      5.12500000   -0.0778  136.5966
     C     31.22000000     27.34100000      4.27500000   -0.0225  137.4226
     C     31.44000000     26.07900000      5.08000000    0.0120   29.8387
     O     32.57600000     25.80200000      5.46100000   -0.2325  -13.1522
     H     32.92200000     27.30900000      2.98900000    0.0324   30.0334
     H     31.53900000     26.30300000      2.43900000    0.0281   30.3629
     H     32.72700000     30.46400000      6.36900000    0.0066   29.5671
     H     30.84400000     30.34400000      8.55700000    0.0326   29.6983
     H     31.10600000     28.69700000      7.88900000    0.0351   30.4533
     H     29.44600000     25.83300000      5.04800000    0.1236   26.9946
     H     32.82200000     28.45600000      5.27400000    0.1242   26.3486
     H     30.13900000     27.52500000      4.18300000    0.0176   26.8788
     H     31.49770000     28.07680000      2.23250000    0.0424   30.1431
     H     31.07410000     31.19490000      6.65950000    0.0331   28.9804
     H     32.34920000     29.50780000      8.79240000    0.0323   30.2935
     H     30.29490000     24.62620000      5.93880000    0.1182   27.8889
