22
chgs=0 nmr=1 
     N     24.24000000     19.23300000     12.24600000   -0.0341  175.9852
     C     26.48200000     19.28000000     14.43200000    0.1147   44.4443
     O     25.60900000     19.38800000     15.28700000   -0.2426  -87.7040
     N     26.58500000     20.06300000     13.37800000   -0.1108  136.0085
     C     25.59400000     21.10900000     13.07200000    0.0270  137.4460
     C     24.24100000     20.43600000     12.85700000   -0.0016   35.2153
     O     23.26400000     20.95100000     13.32900000   -0.1721  -67.1081
     C     26.08400000     21.88800000     11.83300000   -0.0196  155.5006
     C     27.42600000     22.61600000     11.90200000   -0.0252  168.0881
     C     27.38000000     23.72100000     12.95500000   -0.0565  175.5655
     H     25.09100000     18.79700000     11.95400000    0.0983   26.8588
     H     27.36400000     19.94300000     12.76300000    0.1090   27.3537
     H     25.51600000     21.80500000     13.92000000    0.0363   27.3067
     H     26.14900000     21.16800000     11.00400000    0.0002   29.9018
     H     25.31800000     22.64300000     11.60300000    0.0361   29.6974
     H     28.23400000     21.90500000     12.13000000    0.0055   30.1530
     H     28.35200000     24.23400000     12.99200000    0.0306   30.2629
     H     26.59400000     24.44400000     12.69300000    0.0322   30.6577
     H     27.16100000     23.28100000     13.93900000    0.0426   30.1245
     H     23.35340000     18.79510000     12.09710000    0.1226   28.0432
     H     27.25840000     18.50640000     14.52510000   -0.0224   23.3904
     H     27.63490000     23.13470000     10.95470000    0.0297   29.6832
