29
chgs=0 nmr=1 
     N     31.11300000     20.86300000     15.86000000   -0.0068  166.9251
     N     27.51000000     17.68900000     15.95400000   -0.1218  140.8508
     C     30.49100000     19.16200000     12.04000000    0.1345   40.3989
     O     29.36700000     19.52300000     12.44100000   -0.2915  -56.1543
     C     27.57400000     18.19200000     14.56300000    0.0411  160.3266
     C     28.37500000     17.99900000     16.88700000    0.1362   41.8444
     N     31.51000000     18.93600000     12.85200000   -0.0555  135.2730
     C     31.39800000     19.06400000     14.28600000   -0.0196  129.4735
     C     31.59300000     20.55300000     14.65500000    0.0214   32.1302
     O     32.15900000     21.31100000     13.86100000   -0.2243  -48.7793
     C     32.49200000     18.19300000     14.99500000    0.0465  112.7198
     O     33.77800000     18.73900000     14.51600000   -0.2723  271.4011
     C     32.35200000     16.70000000     14.63000000    0.0329  166.0333
     O     29.32600000     18.78600000     16.69000000   -0.2998  -25.8070
     H     30.62600000     20.16900000     16.39000000    0.1002   24.3341
     H     26.75900000     17.07400000     16.19600000    0.1199   27.3840
     H     28.56000000     18.63600000     14.36100000    0.0879   25.3055
     H     32.38900000     18.66700000     12.45900000    0.1180   26.2796
     H     30.40500000     18.73500000     14.62700000    0.0398   25.8661
     H     32.40300000     18.31600000     16.08500000    0.0133   26.9777
     H     34.49400000     18.25400000     14.90900000    0.1507   31.9929
     H     33.13400000     16.12100000     15.14400000    0.0217   30.4742
     H     31.36200000     16.33700000     14.94300000    0.0235   30.3563
     H     32.46000000     16.57700000     13.54200000    0.0138   30.0805
     H     31.23290000     21.77950000     16.24150000    0.1063   27.7214
     H     30.71360000     19.10430000     10.96430000   -0.0115   23.3271
     H     26.79760000     18.96560000     14.46990000    0.0497   28.7295
     H     27.37990000     17.38960000     13.83610000    0.0443   29.1998
     H     28.18190000     17.59410000     17.89140000    0.0018   23.5338
