26
chgs=0 nmr=1 
     C     24.10100000     30.14900000     19.19600000    0.1428   44.6804
     O     24.19600000     30.94800000     18.28700000   -0.2466  -59.4002
     N     23.14100000     29.18700000     19.24100000   -0.1590  133.8479
     C     22.12600000     29.06200000     18.18300000    0.0477  155.1973
     C     22.49400000     28.05700000     17.10900000   -0.0623  171.5067
     C     27.04300000     24.99200000     19.57100000    0.0093  164.2258
     C     25.93100000     25.84400000     18.95900000   -0.1837  164.3070
     C     26.20300000     26.08300000     17.47100000   -0.0055  161.2605
     C     24.57700000     25.19000000     19.07900000    0.0094  162.4392
     H     23.12400000     28.54900000     20.01100000    0.1145   27.2398
     H     21.95700000     30.04300000     17.71400000    0.0479   27.1460
     H     23.42500000     28.39400000     16.63000000    0.0610   29.8953
     H     22.66300000     27.08400000     17.59400000    0.0368   30.0848
     H     27.96900000     25.58500000     19.54900000    0.0221   30.1215
     H     27.16400000     24.09800000     18.94200000    0.0140   30.8290
     H     25.90600000     26.81600000     19.47400000    0.0043   29.8724
     H     25.39600000     26.69700000     17.04400000    0.0207   30.1146
     H     27.16300000     26.60700000     17.35300000    0.0220   30.1868
     H     26.24600000     25.11700000     16.94600000    0.0172   30.8546
     H     23.81400000     25.84000000     18.62600000    0.0047   29.8155
     H     24.59000000     24.22100000     18.55800000    0.0169   30.6419
     H     24.33900000     25.03100000     20.14100000    0.0122   30.2447
     H     24.77440000     30.16420000     20.06570000   -0.0173   23.4831
     H     21.20430000     28.75290000     18.69770000    0.0212   28.9469
     H     21.73530000     27.92080000     16.32420000    0.0311   30.2837
     H     26.88710000     24.65370000     20.60600000    0.0187   30.3447
