25
chgs=0 nmr=1 
     C     40.87300000     33.80200000     30.25300000    0.0051  150.0846
     C     41.76500000     34.82900000     30.94400000   -0.0303   30.2738
     O     42.94500000     34.99400000     30.58300000   -0.2332  -50.0132
     C     41.65100000     32.52900000     29.92300000   -0.0659  158.1796
     C     41.60800000     31.44400000     30.98900000    0.0352  153.1090
     C     41.89600000     30.08000000     30.45600000    0.0769  141.8962
     N     43.31100000     29.73500000     30.56300000   -0.1020  183.1519
     C     44.17400000     29.90500000     29.55400000   -0.1416   50.3914
     N     43.75400000     30.31200000     28.35600000   -0.0198  202.4209
     N     45.47700000     29.72600000     29.76300000   -0.2119  102.1162
     N     41.16500000     35.53100000     31.89800000   -0.0093  165.0252
     H     40.05800000     33.53600000     30.94300000   -0.0068   30.2031
     H     41.23700000     32.10900000     28.99400000   -0.0155   30.7926
     H     42.70300000     32.80600000     29.76300000    0.0584   28.2055
     H     42.35500000     31.68200000     31.76000000    0.0235   29.8118
     H     40.60500000     31.43800000     31.44000000   -0.0052   30.5332
     H     41.30800000     29.34500000     31.02600000    0.0167   28.0736
     H     41.60100000     30.04400000     29.39700000   -0.0010   29.1408
     H     43.64900000     29.35700000     31.42500000    0.1157   28.3066
     H     44.41500000     30.48000000     27.62500000    0.1117   28.6036
     H     42.77800000     30.44900000     28.18900000    0.0760   28.1668
     H     46.01900000     29.93000000     28.94800000    0.0492   27.6121
     H     40.19900000     35.35100000     32.08500000    0.1094   27.4452
     H     40.44030000     34.25790000     29.35020000    0.0469   28.9885
     H     41.63180000     36.23060000     32.43900000    0.1175   27.6629
