12
chgs=0 nmr=1 
     C     26.07000000     27.02500000     24.96000000   -0.0578  172.2995
     C     27.55300000     27.35600000     24.69500000   -0.0403  156.0026
     C     28.26200000     27.57600000     26.02000000   -0.0427   32.0039
     O     29.18900000     26.84000000     26.33500000   -0.2136  -63.1886
     N     27.77700000     28.58500000     26.73900000   -0.0240  174.0703
     H     25.61000000     27.84000000     25.53800000    0.0103   30.5279
     H     25.99900000     26.08600000     25.52900000    0.0444   29.9721
     H     28.02600000     26.52000000     24.15900000    0.0321   29.4814
     H     27.62300000     28.26900000     24.08500000    0.0303   29.2512
     H     28.17600000     28.80100000     27.63000000    0.1156   27.9095
     H     27.01300000     29.12700000     26.38800000    0.1096   27.2010
     H     25.54450000     26.91350000     24.00010000    0.0360   29.9867
