23
chgs=0 nmr=1 
     N     34.73400000     25.82200000     14.94900000   -0.0057  170.6462
     C     31.94500000     29.44900000     10.43600000   -0.1856  193.0233
     C     33.53300000     25.09700000     12.97800000    0.0645  142.1273
     C     34.44100000     26.09900000     13.68400000   -0.0661   31.5860
     O     34.88300000     27.09000000     13.09300000   -0.2291  -71.1063
     C     32.06000000     25.25700000     13.36400000   -0.2233  159.9728
     C     31.68400000     26.74900000     13.34200000    0.0249  166.0750
     C     31.15200000     24.42100000     12.47700000    0.0328  164.6457
     H     34.36300000     24.99500000     15.37200000    0.1067   27.3236
     H     32.69500000     29.27400000     11.22100000    0.0677   30.6672
     H     31.46200000     30.42300000     10.60100000    0.0379   31.0654
     H     31.18600000     28.65300000     10.47000000    0.0439   31.0967
     H     33.61300000     25.28200000     11.89700000    0.0181   29.8825
     H     31.94400000     24.89900000     14.39800000   -0.0023   29.8819
     H     30.62600000     26.86500000     13.61900000    0.0150   30.5120
     H     32.31300000     27.29600000     14.06000000    0.0399   29.9622
     H     31.84500000     27.15300000     12.33100000    0.0286   30.2482
     H     30.10600000     24.56300000     12.78500000    0.0241   30.1780
     H     31.27200000     24.73600000     11.43000000    0.0223   30.6848
     H     31.42200000     23.35900000     12.57400000    0.0172   30.2310
     H     35.32050000     26.42960000     15.48450000    0.1147   27.6624
     H     32.43580000     29.44540000      9.45160000    0.0411   30.9717
     H     33.89050000     24.07720000     13.18320000    0.0127   29.1137
