26
chgs=0 nmr=1 
     C     37.44100000     28.88200000     11.05200000    0.1358   39.3172
     O     38.02000000     29.77200000     10.38200000   -0.2623 -113.3816
     N     38.88300000     30.11000000     13.71300000   -0.0830  141.8932
     C     40.26900000     30.50800000     14.11500000    0.0003  133.3080
     C     41.09200000     30.80800000     12.85100000   -0.0153   28.8243
     O     41.82800000     31.80800000     12.68100000   -0.2282  -65.9971
     C     40.99600000     29.39900000     14.86500000    0.0087  170.4715
     N     41.00100000     29.87800000     11.93100000    0.0184  168.7599
     N     36.81100000     29.17000000     12.19200000   -0.1228  126.2449
     C     36.73100000     30.57000000     12.64500000    0.0291  135.7005
     C     38.14800000     30.98100000     13.06900000    0.0339   27.2937
     O     38.54400000     32.15000000     12.85600000   -0.2343  -97.2760
     C     35.70800000     30.77600000     13.80600000    0.0051  170.8948
     H     38.52700000     29.20100000     13.93100000    0.0847   26.7372
     H     40.23000000     31.41000000     14.74400000    0.0379   27.4907
     H     40.46600000     29.18400000     15.80400000    0.0354   30.1310
     H     41.02200000     28.49200000     14.24300000    0.0095   30.5142
     H     40.44300000     29.06500000     12.10000000    0.0908   27.6254
     H     36.39600000     28.44100000     12.73600000    0.1085   26.9099
     H     36.42300000     31.20600000     11.80200000    0.0496   26.9450
     H     35.89000000     29.98800000     14.55100000    0.0066   30.6271
     H     37.46240000     27.81700000     10.77770000   -0.0062   23.2964
     H     42.02450000     29.71770000     15.09000000    0.0614   29.6677
     H     41.48510000     29.97520000     11.06140000    0.1234   27.6829
     H     34.66770000     30.67340000     13.46370000    0.0488   29.9479
     H     35.82630000     31.74690000     14.30930000    0.0642   29.6520
