11
chgs=0 nmr=1 alpha=38.33 
     N      5.62010000      4.82020000     -0.78950000   -0.1698  236.9368
     C      5.13490000      4.75780000      0.58520000    0.0856  144.5364
     C      4.42820000      3.44170000      0.90960000    0.0448   22.0372
     O      4.96590000      2.35460000      0.66000000   -0.2846  -53.2376
     N      3.18890000      3.51260000      1.46050000   -0.0601  167.4850
     H      6.12690000      3.95360000     -0.98840000    0.0835   30.3008
     H      4.80970000      4.78470000     -1.41320000    0.0691   31.6439
     H      5.99190000      4.83530000      1.27870000    0.0483   28.4743
     H      4.47090000      5.61460000      0.77610000   -0.0003   28.9452
     H      2.70330000      4.40390000      1.49810000    0.0897   27.3908
     H      2.62700000      2.69190000      1.56460000    0.0938   27.8914
