16
chgs=0 nmr=1 alpha=87.33 
     C      5.96040000     -2.19040000     -2.23880000    0.0736   71.3316
     C      6.02880000     -1.42020000     -0.11300000    0.0511   63.6733
     N      6.20610000     -3.26820000     -1.40250000   -0.1092  128.2237
     C      6.25690000     -2.82580000     -0.09490000    0.0871   59.4187
     C      6.04520000     -0.70090000      1.09900000   -0.0092   71.9694
     C      6.47650000     -3.53090000      1.09720000    0.0205   83.6565
     C      6.26560000     -1.40060000      2.28170000    0.0347   72.8342
     C      6.47310000     -2.79860000      2.28190000    0.0312   71.3444
     C      5.83470000     -1.03550000     -1.49250000   -0.0415   87.7854
     H      5.91250000     -2.32370000     -3.31810000   -0.0109   24.5233
     H      6.40150000     -4.21130000     -1.70730000    0.0809   24.4102
     H      5.87840000      0.37770000      1.10230000   -0.0493   23.8736
     H      6.64460000     -4.61050000      1.09690000   -0.0446   24.3641
     H      6.27140000     -0.86200000      3.23210000   -0.0385   24.3947
     H      6.63660000     -3.31610000      3.23010000   -0.0375   24.3307
     H      5.54490000     -0.04080000     -1.86200000   -0.0384   24.6717
