17
chgs=0 nmr=1 alpha=59.04 
     N      5.62010000      4.82020000     -0.78950000   -0.1710  234.7012
     C      5.13490000      4.75780000      0.58520000    0.0797  144.0917
     C      4.42820000      3.44170000      0.90960000    0.0569   21.3016
     O      4.96590000      2.35460000      0.66000000   -0.2921  -52.2126
     N      3.18890000      3.51260000      1.46050000   -0.0606  168.4715
     N      2.23970000      2.31020000     -2.25620000   -0.0897  162.8213
     C      3.56570000      1.99100000     -2.32950000    0.1841   37.8317
     O      4.40780000      2.72380000     -2.83520000   -0.2801  -82.1650
     H      6.12690000      3.95360000     -0.98840000    0.0901   30.3098
     H      4.80970000      4.78470000     -1.41320000    0.0738   31.2486
     H      5.99190000      4.83530000      1.27870000    0.0437   28.5355
     H      4.47090000      5.61460000      0.77610000   -0.0066   29.0543
     H      2.70330000      4.40390000      1.49810000    0.0885   27.3840
     H      1.62560000      1.68770000     -1.72520000    0.0986   27.3796
     H      2.62700000      2.69190000      1.56460000    0.0840   28.0991
     H      1.90410000      3.20400000     -2.55380000    0.0932   27.5999
     H      3.85070000      1.03990000     -1.85600000    0.0075   23.4600
