39
chgs=0 nmr=1 alpha=171.04 
     C      4.42820000      3.44170000      0.90960000    0.2219   34.8401
     O      4.96590000      2.35460000      0.66000000   -0.3077  -77.4306
     N      3.18890000      3.51260000      1.46050000   -0.1072  130.2606
     C      2.37390000      2.32220000      1.61150000   -0.0074  134.3819
     C      0.90310000      2.70560000      1.48210000    0.1034   26.7680
     O      0.49730000      3.84920000      1.74780000   -0.2958  -27.3904
     C      2.64600000      1.59200000      2.95990000    0.1573  148.4192
     C      2.08100000      0.19180000      3.00120000   -0.0862   53.1150
     C      2.64120000     -0.80650000      2.18810000    0.0251   64.8406
     N      2.23970000      2.31020000     -2.25620000   -0.0788  159.3268
     C      0.98480000     -0.15760000      3.80220000    0.0292   62.4857
     C      2.12680000     -2.09980000      2.16000000    0.0413   66.7360
     C      0.45840000     -1.45210000      3.78880000    0.0368   63.7280
     C      1.01760000     -2.42980000      2.95410000    0.0172   64.8479
     N      0.09590000      1.69900000      1.09290000   -0.0386  154.8607
     C      1.94450000     -0.78610000     -1.39400000    0.2303   31.0526
     O      1.25770000      0.07870000     -0.82990000   -0.3142  -38.8072
     N      3.11920000     -0.50300000     -1.99710000   -0.1098  132.1846
     C      3.96600000      0.65520000     -1.66450000    0.0379  138.7090
     C      3.56570000      1.99100000     -2.32950000    0.0771   30.3033
     O      4.40780000      2.72380000     -2.83520000   -0.2613  -81.3807
     H      2.70330000      4.40390000      1.49810000    0.0916   25.6218
     H      2.62670000      1.62560000      0.80080000    0.0119   26.8178
     H      3.74190000      1.55800000      3.06080000    0.0287   28.0392
     H      2.25480000      2.20950000      3.78430000    0.0020   29.1030
     H      3.50920000     -0.57500000      1.56880000   -0.0361   24.0715
     H      1.62560000      1.68770000     -1.72520000    0.0993   24.1778
     H      0.53070000      0.59650000      4.45220000   -0.0405   24.3494
     H      2.57640000     -2.86320000      1.52270000   -0.0396   24.3705
     H     -0.38490000     -1.72720000      4.42550000   -0.0288   24.1705
     H      0.50170000      0.84260000      0.71010000    0.1149   25.5654
     H      3.66780000     -1.30950000     -2.29190000    0.1016   26.5545
     H      3.89510000      0.83610000     -0.58100000    0.1114   25.6791
     H      4.93670000      4.38870000      0.67620000    0.0047   23.2020
     H      1.90410000      3.20400000     -2.55380000    0.0917   27.7639
     H      0.56610000     -3.43290000      2.95190000   -0.0291   24.1285
     H     -0.90000000      1.78450000      1.06430000    0.0862   27.7440
     H      1.63630000     -1.84080000     -1.44490000    0.0188   23.4970
     H      5.01370000      0.41680000     -1.90020000    0.0410   28.3846
