18
chgs=0 nmr=1 alpha=83.56 
     C      2.37390000      2.32220000      1.61150000   -0.0163  169.6786
     C      2.64600000      1.59200000      2.95990000    0.0352  158.4828
     C      2.08100000      0.19180000      3.00120000   -0.0459   49.1110
     C      2.64120000     -0.80650000      2.18810000    0.0286   66.0361
     C      0.98480000     -0.15760000      3.80220000    0.0163   66.2256
     C      2.12680000     -2.09980000      2.16000000    0.0447   65.4377
     C      0.45840000     -1.45210000      3.78880000    0.0384   63.8650
     C      1.01760000     -2.42980000      2.95410000    0.0171   65.2313
     H      2.62670000      1.62560000      0.80080000    0.0189   30.3255
     H      3.74190000      1.55800000      3.06080000    0.0158   28.6804
     H      2.25480000      2.20950000      3.78430000   -0.0019   29.1199
     H      3.50920000     -0.57500000      1.56880000   -0.0465   24.2836
     H      0.53070000      0.59650000      4.45220000   -0.0474   24.3866
     H      2.57640000     -2.86320000      1.52270000   -0.0322   24.2094
     H     -0.38490000     -1.72720000      4.42550000   -0.0326   24.2326
     H      2.99190000      3.22490000      1.49700000    0.0151   30.0295
     H      1.31330000      2.59870000      1.51820000    0.0232   30.1679
     H      0.56610000     -3.43290000      2.95190000   -0.0308   24.1630
