27
chgs=0 nmr=1 alpha=104.94 
     C     -5.95950000     -0.75220000      0.59260000    0.0855  135.9275
     C     -5.44150000     -1.47950000     -0.66470000    0.0911   28.4270
     O     -6.22450000     -2.15670000     -1.31890000   -0.2635  -66.1332
     C     -6.72760000      0.54920000      0.23110000   -0.0299  163.9660
     C     -7.17340000      0.66390000     -1.24020000    0.0466  158.7394
     C     -7.71910000      2.04180000     -1.51110000    0.1480   25.8913
     O     -6.70720000      2.98650000     -1.52750000   -0.2135  141.4945
     O     -8.86560000      2.36260000     -1.68260000   -0.2049  -93.4321
     N     -4.14050000     -1.27530000     -1.02540000   -0.0639  171.5841
     C     -3.36750000      2.38270000     -0.31390000    0.2324   30.3128
     O     -4.04740000      2.27800000      0.70320000   -0.2700  -88.0779
     O     -3.88670000      2.72240000     -1.49350000   -0.1600  111.8143
     C     -4.17810000     -1.39590000      2.16520000    0.1871   37.3953
     O     -4.36040000     -2.59610000      1.96420000   -0.2747 -116.5890
     N     -4.93360000     -0.42760000      1.58080000   -0.1517  125.6698
     H     -6.64650000     -1.48990000      1.03030000    0.0410   27.3613
     H     -7.60780000      0.64120000      0.88650000    0.0357   29.4288
     H     -6.07680000      1.40620000      0.44970000    0.0218   28.9347
     H     -6.30940000      0.50900000     -1.90500000    0.0415   29.4483
     H     -7.93760000     -0.07880000     -1.49670000    0.0518   28.9645
     H     -7.13700000      3.84940000     -1.67810000    0.1659   26.3634
     H     -3.49920000     -0.77170000     -0.41380000    0.0881   26.6863
     H     -4.86380000      2.83350000     -1.40270000    0.1760   21.5918
     H     -4.60560000      0.53540000      1.61300000    0.0984   25.7207
     H     -3.73200000     -1.78860000     -1.78020000    0.0976   27.8031
     H     -2.28390000      2.19630000     -0.34580000    0.0393   23.4549
     H     -3.38120000     -1.05990000      2.84500000   -0.0156   23.1661
