19
chgs=0 nmr=1 alpha=77.07 
     N      2.23970000      2.31020000     -2.25620000   -0.1659  144.2162
     C      1.75110000      3.61130000     -2.68940000    0.1628  151.3206
     C      1.57950000      4.49420000     -1.45790000    0.1174   27.7911
     O      0.32590000      4.42390000     -0.96490000   -0.1773  139.4146
     O      2.47210000      5.11220000     -0.91980000   -0.2267  -80.3821
     C      1.94450000     -0.78610000     -1.39400000    0.2144   32.2533
     O      1.25770000      0.07870000     -0.82990000   -0.2976  -74.7049
     N      3.11920000     -0.50300000     -1.99710000   -0.1182  142.0131
     C      3.96600000      0.65520000     -1.66450000    0.0816  140.5994
     C      3.56570000      1.99100000     -2.32950000    0.1302   30.3922
     O      4.40780000      2.72380000     -2.83520000   -0.2645  -68.5132
     H      1.62560000      1.68770000     -1.72520000    0.0951   23.2686
     H      2.50890000      4.05600000     -3.34560000    0.0521   26.8686
     H      0.79420000      3.49920000     -3.21900000    0.0269   28.3720
     H      0.33700000      4.72390000     -0.02600000    0.1617   26.2054
     H      3.66780000     -1.30950000     -2.29190000    0.0985   26.9774
     H      3.89510000      0.83610000     -0.58100000    0.0558   27.4798
     H      1.63630000     -1.84080000     -1.44490000    0.0125   23.2567
     H      5.01370000      0.41680000     -1.90020000    0.0413   28.3707
