21
chgs=0 nmr=1 alpha=86.23 
     N      2.23970000      2.31020000     -2.25620000   -0.1677  147.0671
     C      1.75110000      3.61130000     -2.68940000    0.1085  145.9319
     C      1.57950000      4.49420000     -1.45790000    0.1380    1.2054
     O      2.47210000      5.11220000     -0.91980000   -0.1770 -342.8861
     C      1.94450000     -0.78610000     -1.39400000    0.2165   32.5216
     O      1.25770000      0.07870000     -0.82990000   -0.3002  -71.1354
     N      3.11920000     -0.50300000     -1.99710000   -0.1002  122.9592
     C      3.96600000      0.65520000     -1.66450000   -0.0682  137.5969
     C      3.56570000      1.99100000     -2.32950000    0.2025   28.5472
     O      4.40780000      2.72380000     -2.83520000   -0.2673  -53.7829
     C      5.43980000      0.31980000     -1.99600000    0.0277  171.0083
     H      1.62560000      1.68770000     -1.72520000    0.0941   23.2843
     H      2.50890000      4.05600000     -3.34560000    0.0496   27.0948
     H      0.79420000      3.49920000     -3.21900000    0.0159   28.4561
     H      3.66780000     -1.30950000     -2.29190000    0.0939   27.2772
     H      3.89510000      0.83610000     -0.58100000    0.0423   27.7754
     H      5.58910000      0.39330000     -3.08410000    0.0404   29.5647
     H      6.04570000      1.11050000     -1.53420000    0.0510   29.5824
     H      0.55720000      4.43690000     -1.05590000   -0.0217   21.5194
     H      1.63630000     -1.84080000     -1.44490000    0.0097   23.2750
     H      5.72960000     -0.67490000     -1.62650000    0.0122   30.8733
