19
chgs=0 nmr=1 alpha=72.13 
     C     -5.95950000     -0.75220000      0.59260000    0.0774  135.0123
     C     -5.44150000     -1.47950000     -0.66470000    0.0987   29.4247
     O     -6.22450000     -2.15670000     -1.31890000   -0.2618  -68.2136
     C     -6.72760000      0.54920000      0.23110000   -0.0302  162.1707
     C     -7.17340000      0.66390000     -1.24020000   -0.0032  178.1090
     N     -4.14050000     -1.27530000     -1.02540000   -0.0620  172.4241
     C     -4.17810000     -1.39590000      2.16520000    0.1925   37.7095
     O     -4.36040000     -2.59610000      1.96420000   -0.2675 -123.5748
     N     -4.93360000     -0.42760000      1.58080000   -0.1423  122.2239
     H     -6.64650000     -1.48990000      1.03030000    0.0409   27.3100
     H     -7.60780000      0.64120000      0.88650000    0.0286   29.2058
     H     -6.07680000      1.40620000      0.44970000   -0.0033   30.8283
     H     -6.30940000      0.50900000     -1.90500000    0.0294   30.4706
     H     -7.93760000     -0.07880000     -1.49670000    0.0422   30.0092
     H     -3.49920000     -0.77170000     -0.41380000    0.0833   26.5957
     H     -4.60560000      0.53540000      1.61300000    0.0857   27.3735
     H     -7.57180000      1.66990000     -1.43800000    0.0101   30.5651
     H     -3.73200000     -1.78860000     -1.78020000    0.0969   27.7314
     H     -3.38120000     -1.05990000      2.84500000   -0.0152   23.1728
