31
chgs=0 nmr=1 alpha=133.34 
     C      2.64600000      1.59200000      2.95990000    0.0515  169.6318
     C      2.08100000      0.19180000      3.00120000   -0.0902   56.2081
     C      2.64120000     -0.80650000      2.18810000    0.0255   64.7746
     C      0.98480000     -0.15760000      3.80220000    0.0164   67.0572
     C      2.12680000     -2.09980000      2.16000000    0.0493   65.1664
     C      0.45840000     -1.45210000      3.78880000    0.0395   64.3793
     C      1.01760000     -2.42980000      2.95410000    0.0281   64.5458
     C     -1.91270000      0.47570000      1.51600000    0.2142   37.7094
     O     -1.83470000     -0.51030000      0.76680000   -0.3002 -125.3764
     N     -2.50100000      0.37410000      2.72560000   -0.2542  126.4938
     C     -3.06370000     -0.92600000      3.11590000    0.1324  145.3234
     C     -3.54840000     -0.67920000      4.55730000   -0.0350  164.9094
     C     -3.88230000      0.82070000      4.57630000   -0.0272  162.8046
     C     -2.78870000      1.44460000      3.69700000    0.1269  146.5902
     H      3.74190000      1.55800000      3.06080000    0.0322   28.9896
     H      2.25480000      2.20950000      3.78430000    0.0121   29.5827
     H      3.50920000     -0.57500000      1.56880000   -0.0515   24.3566
     H      0.53070000      0.59650000      4.45220000   -0.0540   24.5361
     H      2.57640000     -2.86320000      1.52270000   -0.0301   24.2437
     H     -0.38490000     -1.72720000      4.42550000   -0.0333   24.3665
     H     -2.29450000     -1.70630000      3.05990000    0.0257   27.9468
     H     -4.39500000     -1.32650000      4.82530000    0.0122   29.5345
     H     -2.72210000     -0.89730000      5.25360000    0.0202   29.6238
     H     -4.86980000      0.99170000      4.11760000    0.0221   29.6294
     H     -3.89940000      1.24920000      5.58850000    0.0100   29.5213
     H     -1.88090000      1.68360000      4.27730000    0.0256   28.0992
     H     -3.13200000      2.35020000      3.17990000    0.0211   28.0635
     H      2.45380000      2.10780000      2.00750000    0.0415   28.9443
     H      0.56610000     -3.43290000      2.95190000   -0.0316   24.1819
     H     -1.50900000      1.44310000      1.18240000   -0.0204   23.4306
     H     -3.86060000     -1.26200000      2.43610000    0.0209   28.3701
