34
chgs=0 nmr=1 alpha=138.22 
     C      0.90310000      2.70560000      1.48210000    0.2161   33.9694
     O      0.49730000      3.84920000      1.74780000   -0.3211  -52.0278
     C      1.57950000      4.49420000     -1.45790000    0.2255   38.6074
     O      0.32590000      4.42390000     -0.96490000   -0.1845  115.9569
     O      2.47210000      5.11220000     -0.91980000   -0.2354 -120.2595
     N      0.09590000      1.69900000      1.09290000   -0.1080  125.9319
     C     -1.35040000      1.82310000      1.05140000    0.0203  143.5769
     C     -1.91270000      0.47570000      1.51600000    0.1993   25.4772
     O     -1.83470000     -0.51030000      0.76680000   -0.3146  -45.8163
     C     -1.88600000      2.12790000     -0.35750000    0.0523  155.9247
     C     -3.36750000      2.38270000     -0.31390000    0.1653   21.1730
     O     -4.04740000      2.27800000      0.70320000   -0.2676  -76.2566
     O     -3.88670000      2.72240000     -1.49350000   -0.1574  141.1306
     N     -2.50100000      0.37410000      2.72560000   -0.2575  121.3972
     C     -3.06370000     -0.92600000      3.11590000    0.1358  144.2068
     C     -3.54840000     -0.67920000      4.55730000   -0.0296  163.9555
     C     -3.88230000      0.82070000      4.57630000   -0.0152  163.2191
     C     -2.78870000      1.44460000      3.69700000    0.1106  144.4329
     H      0.33700000      4.72390000     -0.02600000    0.1763   24.2847
     H      0.50170000      0.84260000      0.71010000    0.0986   26.4240
     H     -1.61820000      2.64140000      1.72800000    0.0154   26.5101
     H     -1.37820000      3.00360000     -0.78400000    0.0509   27.9158
     H     -1.69840000      1.28000000     -1.04010000    0.0505   28.4708
     H     -4.86380000      2.83350000     -1.40270000    0.1629   25.7039
     H     -2.29450000     -1.70630000      3.05990000    0.0201   27.9998
     H     -4.39500000     -1.32650000      4.82530000    0.0120   29.5218
     H     -2.72210000     -0.89730000      5.25360000    0.0168   29.6599
     H     -4.86980000      0.99170000      4.11760000    0.0293   29.4683
     H     -3.89940000      1.24920000      5.58850000    0.0115   29.5769
     H     -1.88090000      1.68360000      4.27730000    0.0223   28.2374
     H     -3.13200000      2.35020000      3.17990000    0.0497   27.1935
     H      1.96370000      2.42910000      1.57540000    0.0079   23.5338
     H      1.70330000      3.85730000     -2.34620000    0.0145   23.8304
     H     -3.86060000     -1.26200000      2.43610000    0.0270   28.2183
