23
chgs=0 nmr=1 alpha=83.68 
     C     -5.44150000     -1.47950000     -0.66470000    0.2046   38.9007
     O     -6.22450000     -2.15670000     -1.31890000   -0.2657  -93.1071
     N     -4.14050000     -1.27530000     -1.02540000   -0.1471  140.3415
     C     -3.54700000     -2.02120000     -2.12210000    0.0667  132.3987
     C     -2.54580000     -3.08320000     -1.64360000    0.1469   21.5150
     O     -1.85310000     -3.71080000     -2.46200000   -0.3234   -8.1950
     C     -2.83870000     -1.09330000     -3.13790000    0.0544  123.4434
     O     -1.71160000     -0.46870000     -2.50910000   -0.3149  296.3634
     C     -3.77040000     -0.02030000     -3.68410000    0.0655  171.1486
     N     -2.40610000     -3.22870000     -0.31420000   -0.0299  162.9598
     O      0.17140000     -2.23790000     -3.52280000   -0.2933  322.7831
     H     -3.49920000     -0.77170000     -0.41380000    0.0912   26.4566
     H     -4.37040000     -2.54620000     -2.62940000    0.0495   26.6424
     H     -2.49380000     -1.73900000     -3.96220000    0.0086   26.9123
     H     -0.90150000     -0.86780000     -2.89010000    0.1386   26.8261
     H     -3.25600000      0.55400000     -4.46900000    0.0210   30.1924
     H     -4.68470000     -0.46680000     -4.10730000    0.0157   30.5490
     H     -4.05240000      0.68150000     -2.88650000    0.0134   30.2221
     H     -3.05840000     -2.77050000      0.31520000    0.0897   25.8848
     H     -0.55590000     -2.85860000     -3.27480000    0.1709   26.9491
     H     -5.81100000     -0.96070000      0.23210000   -0.0076   22.9826
     H     -1.68320000     -3.77990000      0.10240000    0.0990   27.4164
     H      0.99420000     -2.59070000     -3.12420000    0.1463   30.9649
