11
chgs=0 nmr=1 alpha=38.5 
     C     -6.72760000      0.54920000      0.23110000   -0.0348  178.1209
     C     -7.17340000      0.66390000     -1.24020000    0.0151  162.7141
     C     -7.71910000      2.04180000     -1.51110000    0.1283   23.9455
     O     -6.70720000      2.98650000     -1.52750000   -0.1974  131.8658
     O     -8.86560000      2.36260000     -1.68260000   -0.2252  -85.2406
     H     -7.60780000      0.64120000      0.88650000    0.0336   30.2128
     H     -6.07680000      1.40620000      0.44970000    0.0348   30.0390
     H     -6.30940000      0.50900000     -1.90500000    0.0367   29.1647
     H     -7.93760000     -0.07880000     -1.49670000    0.0295   29.5791
     H     -7.13700000      3.84940000     -1.67810000    0.1516   26.5747
     H     -6.18380000     -0.37210000      0.48700000    0.0277   30.1858
