28
chgs=0 nmr=1 alpha=136.75 
     C      5.96040000     -2.19040000     -2.23880000    0.0392   75.1860
     C      6.02880000     -1.42020000     -0.11300000    0.0463   65.6270
     C      4.42820000      3.44170000      0.90960000    0.1851   35.7431
     O      4.96590000      2.35460000      0.66000000   -0.2537  -96.2447
     C      6.25690000     -2.82580000     -0.09490000    0.0747   58.3260
     C      6.04520000     -0.70090000      1.09900000   -0.0152   70.2712
     C      6.26560000     -1.40060000      2.28170000    0.0290   74.1639
     C      6.47310000     -2.79860000      2.28190000    0.0328   71.8478
     N      6.20610000     -3.26820000     -1.40250000   -0.1124  133.0932
     C      6.47650000     -3.53090000      1.09720000    0.0207   84.7885
     N      3.18890000      3.51260000      1.46050000   -0.0682  160.6553
     C      3.96600000      0.65520000     -1.66450000   -0.0150  169.1410
     C      5.43980000      0.31980000     -1.99600000    0.0530  168.2939
     C      5.83470000     -1.03550000     -1.49250000   -0.1051   69.9618
     H      5.91250000     -2.32370000     -3.31810000   -0.0325   24.7526
     H      5.87840000      0.37770000      1.10230000   -0.0431   22.5323
     H      6.27140000     -0.86200000      3.23210000   -0.0512   24.4986
     H      6.63660000     -3.31610000      3.23010000   -0.0462   24.4376
     H      6.40150000     -4.21130000     -1.70730000    0.0745   24.7878
     H      6.64460000     -4.61050000      1.09690000   -0.0525   24.5144
     H      2.70330000      4.40390000      1.49810000    0.0992   27.1934
     H      3.89510000      0.83610000     -0.58100000    0.0319   28.8302
     H      5.58910000      0.39330000     -3.08410000   -0.0168   29.0937
     H      6.04570000      1.11050000     -1.53420000    0.0122   28.1955
     H      4.93670000      4.38870000      0.67620000    0.0107   23.0189
     H      2.62700000      2.69190000      1.56460000    0.1073   27.1372
     H      3.33350000     -0.20980000     -1.91290000    0.0038   30.7954
     H      3.68100000      1.60630000     -2.13800000   -0.0086   30.5657
