24
chgs=0 nmr=1 alpha=90.27 
     C      5.13490000      4.75780000      0.58520000    0.0285  167.4974
     C      4.42820000      3.44170000      0.90960000    0.0877   25.8277
     O      4.96590000      2.35460000      0.66000000   -0.3091  -67.5835
     N      3.18890000      3.51260000      1.46050000   -0.1149  136.0517
     C      2.37390000      2.32220000      1.61150000   -0.0004  138.9681
     C      0.90310000      2.70560000      1.48210000    0.1216   18.7343
     O      0.49730000      3.84920000      1.74780000   -0.3155  -17.2078
     C      2.64600000      1.59200000      2.95990000    0.0449  167.8995
     C      1.57950000      4.49420000     -1.45790000    0.2312   36.3210
     O      0.32590000      4.42390000     -0.96490000   -0.1873  113.8977
     O      2.47210000      5.11220000     -0.91980000   -0.2496 -104.2280
     N      0.09590000      1.69900000      1.09290000   -0.0304  163.2022
     H      5.99190000      4.83530000      1.27870000    0.0414   29.6390
     H      4.47090000      5.61460000      0.77610000    0.0191   29.7191
     H      2.70330000      4.40390000      1.49810000    0.0894   25.7575
     H      2.62670000      1.62560000      0.80080000    0.0077   27.6720
     H      3.74190000      1.55800000      3.06080000    0.0468   29.6774
     H      2.25480000      2.20950000      3.78430000    0.0246   30.2830
     H      0.33700000      4.72390000     -0.02600000    0.1706   24.2678
     H      0.50170000      0.84260000      0.71010000    0.1085   26.6847
     H      5.50070000      4.80480000     -0.45110000    0.0506   29.3874
     H      2.23450000      0.57230000      2.99000000    0.0126   30.3669
     H      1.70330000      3.85730000     -2.34620000    0.0220   23.9051
     H     -0.90000000      1.78450000      1.06430000    0.1001   27.3194
