19
chgs=0 nmr=1 alpha=83.95 
     C      2.08100000      0.19180000      3.00120000    0.0098   74.4735
     C      2.64120000     -0.80650000      2.18810000    0.0361   64.0501
     C      0.98480000     -0.15760000      3.80220000    0.0444   64.4755
     C      2.12680000     -2.09980000      2.16000000    0.0064   77.9580
     C      0.45840000     -1.45210000      3.78880000    0.0306   79.2078
     C      1.01760000     -2.42980000      2.95410000    0.0349   36.3921
     O      0.45780000     -3.67340000      2.95140000   -0.2075  202.1582
     C      0.07660000     -3.63300000     -0.06370000    0.1909   32.2856
     O      0.98870000     -4.40750000      0.25670000   -0.3085  -80.2270
     N      0.29000000     -2.47520000     -0.72790000   -0.0533  157.7509
     H      3.50920000     -0.57500000      1.56880000   -0.0389   24.5096
     H      0.53070000      0.59650000      4.45220000   -0.0332   24.3802
     H      2.57640000     -2.86320000      1.52270000   -0.0271   24.6554
     H     -0.38490000     -1.72720000      4.42550000   -0.0331   24.8262
     H      0.82970000     -4.18290000      2.20160000    0.1517   26.1176
     H     -0.46940000     -1.80640000     -0.84560000    0.1100   27.2120
     H      2.49250000      1.21150000      2.97110000   -0.0372   24.5895
     H     -0.95650000     -3.91430000      0.18850000    0.0156   23.0542
     H      1.13690000     -2.32060000     -1.23670000    0.1084   27.2555
