44
chgs=0 nmr=1 alpha=214.0 
     C      5.96040000     -2.19040000     -2.23880000    0.0340   72.6039
     C      6.02880000     -1.42020000     -0.11300000    0.0723   67.1137
     N      6.20610000     -3.26820000     -1.40250000   -0.1085  130.3226
     C      6.25690000     -2.82580000     -0.09490000    0.0765   57.1924
     C      6.04520000     -0.70090000      1.09900000   -0.0553   72.6459
     C      2.37390000      2.32220000      1.61150000   -0.0374  169.5651
     C      6.26560000     -1.40060000      2.28170000    0.0542   70.6875
     C      6.47650000     -3.53090000      1.09720000    0.0268   82.6975
     C      2.64600000      1.59200000      2.95990000    0.0240  158.0196
     C      2.08100000      0.19180000      3.00120000   -0.0414   50.5221
     C      2.64120000     -0.80650000      2.18810000    0.0674   61.4310
     C      0.98480000     -0.15760000      3.80220000    0.0183   66.6273
     C      2.12680000     -2.09980000      2.16000000    0.0300   67.3151
     C      6.47310000     -2.79860000      2.28190000    0.0399   68.8954
     C      1.01760000     -2.42980000      2.95410000    0.0191   66.2976
     C      0.45840000     -1.45210000      3.78880000    0.0367   65.1606
     C      1.94450000     -0.78610000     -1.39400000    0.1946   34.8111
     O      1.25770000      0.07870000     -0.82990000   -0.2823 -110.3924
     N      3.11920000     -0.50300000     -1.99710000   -0.1344  135.3233
     C      3.96600000      0.65520000     -1.66450000    0.0817  149.8357
     C      5.43980000      0.31980000     -1.99600000    0.0580  165.3172
     C      5.83470000     -1.03550000     -1.49250000   -0.1309   77.1029
     H      5.91250000     -2.32370000     -3.31810000   -0.0149   24.5746
     H      6.40150000     -4.21130000     -1.70730000    0.0835   24.3833
     H      5.87840000      0.37770000      1.10230000   -0.0385   23.4762
     H      2.62670000      1.62560000      0.80080000    0.0526   29.3246
     H      6.27140000     -0.86200000      3.23210000   -0.0288   24.2939
     H      6.64460000     -4.61050000      1.09690000   -0.0391   24.2374
     H      3.74190000      1.55800000      3.06080000    0.0064   28.6290
     H      2.25480000      2.20950000      3.78430000   -0.0074   29.1419
     H      3.50920000     -0.57500000      1.56880000   -0.0505   24.8181
     H      0.53070000      0.59650000      4.45220000   -0.0527   24.5424
     H      2.57640000     -2.86320000      1.52270000   -0.0439   25.5868
     H      6.63660000     -3.31610000      3.23010000   -0.0290   24.2255
     H     -0.38490000     -1.72720000      4.42550000   -0.0388   24.4855
     H      3.66780000     -1.30950000     -2.29190000    0.0832   27.5027
     H      3.89510000      0.83610000     -0.58100000    0.0535   27.4787
     H      5.58910000      0.39330000     -3.08410000    0.0071   28.7307
     H      6.04570000      1.11050000     -1.53420000    0.0206   28.1279
     H      2.99190000      3.22490000      1.49700000   -0.0018   30.1783
     H      1.31330000      2.59870000      1.51820000    0.0272   30.0789
     H      0.56610000     -3.43290000      2.95190000   -0.0392   24.5833
     H      1.63630000     -1.84080000     -1.44490000   -0.0185   23.9457
     H      3.68100000      1.60630000     -2.13800000    0.0257   28.2099
