34
chgs=0 nmr=1 alpha=132.8 
     C     -3.54700000     -2.02120000     -2.12210000    0.0689  142.1997
     C     -2.54580000     -3.08320000     -1.64360000    0.1188   21.2317
     O     -1.85310000     -3.71080000     -2.46200000   -0.3302  -22.4322
     C     -2.83870000     -1.09330000     -3.13790000    0.0151  124.2447
     O     -1.71160000     -0.46870000     -2.50910000   -0.2933  281.7341
     C     -3.77040000     -0.02030000     -3.68410000    0.0566  168.4219
     N     -2.40610000     -3.22870000     -0.31420000   -0.1190  140.1787
     C     -1.36200000     -4.02470000      0.28750000    0.1223  146.2713
     C      0.07660000     -3.63300000     -0.06370000    0.1175   30.5625
     O      0.98870000     -4.40750000      0.25670000   -0.2977  -45.1624
     N      0.29000000     -2.47520000     -0.72790000   -0.1079  147.1712
     C      1.51630000     -2.25140000     -1.46470000   -0.0082  134.3555
     C      1.94450000     -0.78610000     -1.39400000    0.1109   25.1854
     O      1.25770000      0.07870000     -0.82990000   -0.2616  -95.4143
     C      1.36760000     -2.75080000     -2.94330000    0.1936  126.1103
     O      0.17140000     -2.23790000     -3.52280000   -0.3160  301.3266
     N      3.11920000     -0.50300000     -1.99710000   -0.0409  174.4940
     H     -4.37040000     -2.54620000     -2.62940000    0.0312   29.4525
     H     -2.49380000     -1.73900000     -3.96220000    0.0098   27.1729
     H     -0.90150000     -0.86780000     -2.89010000    0.1492   27.2511
     H     -3.25600000      0.55400000     -4.46900000    0.0223   29.9962
     H     -4.68470000     -0.46680000     -4.10730000    0.0060   30.5144
     H     -4.05240000      0.68150000     -2.88650000    0.0224   30.2765
     H     -3.05840000     -2.77050000      0.31520000    0.1004   26.1857
     H     -1.46800000     -3.96920000      1.37910000    0.0446   28.2712
     H     -1.43760000     -5.08370000     -0.00650000    0.0621   27.3398
     H     -0.46940000     -1.80640000     -0.84560000    0.0865   25.0836
     H      2.30700000     -2.84320000     -0.97730000    0.0301   27.0899
     H      2.19480000     -2.32230000     -3.53340000    0.0033   27.8836
     H     -0.55590000     -2.85860000     -3.27480000    0.1855   26.8257
     H      3.66780000     -1.30950000     -2.29190000    0.0887   27.8308
     H     -3.99630000     -1.45650000     -1.29190000   -0.0011   29.7491
     H      1.40180000     -3.84800000     -3.01410000    0.0318   27.5442
     H      3.69420000      0.28340000     -1.77130000    0.0984   27.6420
