36
chgs=0 nmr=1 alpha=171.2 
     C      5.96040000     -2.19040000     -2.23880000    0.0250   72.7589
     C      6.02880000     -1.42020000     -0.11300000    0.0663   66.7047
     N      6.20610000     -3.26820000     -1.40250000   -0.1083  130.9451
     C      6.25690000     -2.82580000     -0.09490000    0.0744   57.2949
     C      6.04520000     -0.70090000      1.09900000   -0.0380   73.6506
     C      6.47650000     -3.53090000      1.09720000    0.0278   82.8945
     C      6.26560000     -1.40060000      2.28170000    0.0436   72.2593
     C      6.47310000     -2.79860000      2.28190000    0.0357   69.5157
     N      2.23970000      2.31020000     -2.25620000   -0.0709  158.0612
     C      1.51630000     -2.25140000     -1.46470000   -0.0074  158.4701
     C      1.94450000     -0.78610000     -1.39400000    0.1360   20.0766
     O      1.25770000      0.07870000     -0.82990000   -0.3092  -59.1562
     C      1.36760000     -2.75080000     -2.94330000   -0.0332  175.7230
     N      3.11920000     -0.50300000     -1.99710000   -0.1125  134.9915
     C      3.96600000      0.65520000     -1.66450000   -0.0254  137.4882
     C      3.56570000      1.99100000     -2.32950000    0.1401   27.4682
     O      4.40780000      2.72380000     -2.83520000   -0.2724  -51.9839
     C      5.43980000      0.31980000     -1.99600000    0.1466  163.4155
     C      5.83470000     -1.03550000     -1.49250000   -0.1402   76.2600
     H      5.91250000     -2.32370000     -3.31810000   -0.0144   24.6259
     H      6.40150000     -4.21130000     -1.70730000    0.0823   24.4732
     H      5.87840000      0.37770000      1.10230000   -0.0392   23.8015
     H      6.64460000     -4.61050000      1.09690000   -0.0406   24.3166
     H      6.27140000     -0.86200000      3.23210000   -0.0327   24.3183
     H      6.63660000     -3.31610000      3.23010000   -0.0318   24.2049
     H      1.62560000      1.68770000     -1.72520000    0.0966   23.4832
     H      2.30700000     -2.84320000     -0.97730000    0.0333   30.1991
     H      2.19480000     -2.32230000     -3.53340000    0.0124   30.5016
     H      3.66780000     -1.30950000     -2.29190000    0.1045   26.8340
     H      3.89510000      0.83610000     -0.58100000    0.0355   27.7436
     H      5.58910000      0.39330000     -3.08410000    0.0097   28.6564
     H      6.04570000      1.11050000     -1.53420000    0.0310   27.9094
     H      1.90410000      3.20400000     -2.55380000    0.0836   27.5926
     H      0.58470000     -2.42140000     -0.90500000    0.0275   29.7637
     H      0.44400000     -2.35480000     -3.39070000    0.0388   30.1150
     H      1.40180000     -3.84800000     -3.01410000    0.0253   30.3254
