25
chgs=0 nmr=1 alpha=94.36 
     N      5.62010000      4.82020000     -0.78950000   -0.1798  238.9737
     C      5.13490000      4.75780000      0.58520000    0.1017  143.7591
     C      4.42820000      3.44170000      0.90960000    0.0964   20.2559
     O      4.96590000      2.35460000      0.66000000   -0.3134  -38.6797
     N      3.18890000      3.51260000      1.46050000   -0.1153  138.1486
     C      2.37390000      2.32220000      1.61150000   -0.0047  140.2295
     C      0.90310000      2.70560000      1.48210000    0.1054   22.6902
     O      0.49730000      3.84920000      1.74780000   -0.2846  -45.1507
     C      2.64600000      1.59200000      2.95990000    0.0447  167.9402
     C      1.57950000      4.49420000     -1.45790000    0.1816    0.4688
     O      2.47210000      5.11220000     -0.91980000   -0.1891 -389.0425
     N      0.09590000      1.69900000      1.09290000   -0.0454  169.7665
     H      6.12690000      3.95360000     -0.98840000    0.0747   30.6012
     H      4.80970000      4.78470000     -1.41320000    0.0640   30.7392
     H      5.99190000      4.83530000      1.27870000    0.0344   28.5354
     H      4.47090000      5.61460000      0.77610000    0.0135   28.2212
     H      2.70330000      4.40390000      1.49810000    0.0955   25.9289
     H      2.62670000      1.62560000      0.80080000    0.0015   27.8518
     H      3.74190000      1.55800000      3.06080000    0.0450   29.7576
     H      2.25480000      2.20950000      3.78430000    0.0256   30.3330
     H      0.50170000      0.84260000      0.71010000    0.1032   27.0628
     H      2.23450000      0.57230000      2.99000000    0.0120   30.3972
     H      1.70330000      3.85730000     -2.34620000    0.0103   21.6912
     H      0.55720000      4.43690000     -1.05590000    0.0269   21.8909
     H     -0.90000000      1.78450000      1.06430000    0.0957   27.5894
