31
chgs=0 nmr=1 alpha=159.89 
     C      5.96040000     -2.19040000     -2.23880000    0.0458   72.6012
     C      6.02880000     -1.42020000     -0.11300000    0.0643   64.9681
     N      6.20610000     -3.26820000     -1.40250000   -0.1115  131.5299
     C      6.25690000     -2.82580000     -0.09490000    0.0755   58.0785
     C      6.04520000     -0.70090000      1.09900000   -0.0557   73.3376
     C      6.47650000     -3.53090000      1.09720000    0.0242   83.0468
     C      6.26560000     -1.40060000      2.28170000    0.0507   72.0678
     C      6.47310000     -2.79860000      2.28190000    0.0336   70.9312
     C      2.08100000      0.19180000      3.00120000    0.0150   65.7092
     C      2.64120000     -0.80650000      2.18810000    0.0464   61.9291
     C      0.98480000     -0.15760000      3.80220000    0.0359   66.2958
     C      2.12680000     -2.09980000      2.16000000    0.0288   66.8899
     C      0.45840000     -1.45210000      3.78880000    0.0250   65.7131
     C      1.01760000     -2.42980000      2.95410000    0.0180   63.3284
     C      5.43980000      0.31980000     -1.99600000    0.0684  180.6993
     C      5.83470000     -1.03550000     -1.49250000   -0.1514   78.5516
     H      5.91250000     -2.32370000     -3.31810000   -0.0250   24.6012
     H      6.40150000     -4.21130000     -1.70730000    0.0795   24.5295
     H      5.87840000      0.37770000      1.10230000   -0.0472   23.6975
     H      6.64460000     -4.61050000      1.09690000   -0.0442   24.3194
     H      6.27140000     -0.86200000      3.23210000   -0.0363   24.4112
     H      6.63660000     -3.31610000      3.23010000   -0.0356   24.3647
     H      3.50920000     -0.57500000      1.56880000   -0.0233   24.5015
     H      0.53070000      0.59650000      4.45220000   -0.0330   24.3574
     H      2.57640000     -2.86320000      1.52270000   -0.0295   25.2918
     H     -0.38490000     -1.72720000      4.42550000   -0.0346   24.3261
     H      5.58910000      0.39330000     -3.08410000    0.0144   29.1722
     H      6.04570000      1.11050000     -1.53420000    0.0272   28.9934
     H      2.49250000      1.21150000      2.97110000   -0.0332   24.0117
     H      0.56610000     -3.43290000      2.95190000   -0.0312   24.3552
     H      4.39210000      0.55820000     -1.76030000    0.0390   29.1290
