47
chgs=0 nmr=1 alpha=187.25 
     C     -1.91270000      0.47570000      1.51600000    0.2275   35.1131
     O     -1.83470000     -0.51030000      0.76680000   -0.2988 -110.0683
     N     -2.50100000      0.37410000      2.72560000   -0.2541  124.2390
     C     -3.06370000     -0.92600000      3.11590000    0.1095  145.1451
     C     -3.54840000     -0.67920000      4.55730000   -0.0234  165.3010
     C     -3.88230000      0.82070000      4.57630000   -0.0286  162.9326
     C     -2.78870000      1.44460000      3.69700000    0.1318  146.8558
     C     -3.54700000     -2.02120000     -2.12210000    0.0258  149.3035
     C     -2.54580000     -3.08320000     -1.64360000    0.1126   21.2181
     O     -1.85310000     -3.71080000     -2.46200000   -0.3382  -12.0335
     C     -2.83870000     -1.09330000     -3.13790000    0.1368  131.3351
     O     -1.71160000     -0.46870000     -2.50910000   -0.2929  298.7008
     N     -2.40610000     -3.22870000     -0.31420000   -0.1007  133.0575
     C     -1.36200000     -4.02470000      0.28750000    0.1246  145.6749
     C      0.07660000     -3.63300000     -0.06370000    0.1127   29.8965
     O      0.98870000     -4.40750000      0.25670000   -0.3077  -36.8294
     N      0.29000000     -2.47520000     -0.72790000   -0.1153  145.2285
     C      1.51630000     -2.25140000     -1.46470000   -0.0099  133.7547
     C      1.94450000     -0.78610000     -1.39400000    0.1088   24.8977
     O      1.25770000      0.07870000     -0.82990000   -0.2599  -98.0431
     C      1.36760000     -2.75080000     -2.94330000    0.1946  126.0680
     O      0.17140000     -2.23790000     -3.52280000   -0.3167  301.6029
     N      3.11920000     -0.50300000     -1.99710000   -0.0418  175.2864
     H     -2.29450000     -1.70630000      3.05990000    0.0267   28.0304
     H     -4.39500000     -1.32650000      4.82530000    0.0135   29.5320
     H     -2.72210000     -0.89730000      5.25360000    0.0239   29.6572
     H     -4.86980000      0.99170000      4.11760000    0.0231   29.5732
     H     -3.89940000      1.24920000      5.58850000    0.0159   29.4929
     H     -1.88090000      1.68360000      4.27730000    0.0299   28.1243
     H     -3.13200000      2.35020000      3.17990000    0.0272   27.9051
     H     -4.37040000     -2.54620000     -2.62940000    0.0198   29.8788
     H     -2.49380000     -1.73900000     -3.96220000    0.0184   27.2688
     H     -0.90150000     -0.86780000     -2.89010000    0.1457   27.6331
     H     -3.05840000     -2.77050000      0.31520000    0.0977   25.6247
     H     -1.46800000     -3.96920000      1.37910000    0.0392   28.2434
     H     -1.43760000     -5.08370000     -0.00650000    0.0529   27.3887
     H     -0.46940000     -1.80640000     -0.84560000    0.1194   24.3270
     H      2.30700000     -2.84320000     -0.97730000    0.0235   27.1416
     H      2.19480000     -2.32230000     -3.53340000   -0.0019   27.9430
     H     -0.55590000     -2.85860000     -3.27480000    0.1837   26.6984
     H      3.66780000     -1.30950000     -2.29190000    0.0868   27.8463
     H     -1.50900000      1.44310000      1.18240000    0.0045   22.8178
     H     -3.86060000     -1.26200000      2.43610000    0.0184   28.3694
     H     -3.99630000     -1.45650000     -1.29190000    0.0069   29.3643
     H     -3.51190000     -0.31800000     -3.53260000    0.0058   27.8783
     H      1.40180000     -3.84800000     -3.01410000    0.0287   27.5802
     H      3.69420000      0.28340000     -1.77130000    0.0937   27.7570
