38
chgs=0 nmr=1 alpha=154.86 
     C     -1.35040000      1.82310000      1.05140000    0.0372  162.4475
     C     -1.91270000      0.47570000      1.51600000    0.1296   24.3112
     O     -1.83470000     -0.51030000      0.76680000   -0.3090  -47.9584
     C     -1.88600000      2.12790000     -0.35750000   -0.0409  146.7877
     C     -3.36750000      2.38270000     -0.31390000    0.1964  -14.1934
     O     -4.04740000      2.27800000      0.70320000   -0.2225 -292.5706
     N     -2.50100000      0.37410000      2.72560000   -0.2329  110.7419
     C     -3.06370000     -0.92600000      3.11590000    0.0682  126.8694
     C     -4.17810000     -1.39590000      2.16520000    0.1598   25.5004
     O     -4.36040000     -2.59610000      1.96420000   -0.2696  -77.6594
     C     -3.54840000     -0.67920000      4.55730000    0.0363  159.9840
     C     -3.88230000      0.82070000      4.57630000   -0.0188  164.0287
     C     -2.78870000      1.44460000      3.69700000    0.1058  143.1249
     N     -4.93360000     -0.42760000      1.58080000   -0.1613  136.3616
     C     -5.95950000     -0.75220000      0.59260000    0.0233  138.5640
     C     -5.44150000     -1.47950000     -0.66470000    0.1012   26.0313
     O     -6.22450000     -2.15670000     -1.31890000   -0.2731  -52.0491
     C     -6.72760000      0.54920000      0.23110000   -0.0041  173.5258
     N     -4.14050000     -1.27530000     -1.02540000   -0.0770  169.3718
     H     -1.61820000      2.64140000      1.72800000    0.0145   28.9832
     H     -1.37820000      3.00360000     -0.78400000    0.0382   28.9322
     H     -1.69840000      1.28000000     -1.04010000    0.0660   28.0636
     H     -2.29450000     -1.70630000      3.05990000    0.0184   27.2777
     H     -4.39500000     -1.32650000      4.82530000    0.0303   29.4172
     H     -2.72210000     -0.89730000      5.25360000    0.0179   29.4219
     H     -4.86980000      0.99170000      4.11760000    0.0258   29.1784
     H     -3.89940000      1.24920000      5.58850000    0.0149   29.5802
     H     -1.88090000      1.68360000      4.27730000    0.0231   28.0189
     H     -3.13200000      2.35020000      3.17990000    0.0409   27.0631
     H     -4.60560000      0.53540000      1.61300000    0.1146   26.1634
     H     -6.64650000     -1.48990000      1.03030000    0.0303   27.6892
     H     -7.60780000      0.64120000      0.88650000    0.0276   29.9447
     H     -6.07680000      1.40620000      0.44970000    0.0212   29.9611
     H     -3.49920000     -0.77170000     -0.41380000    0.0930   26.2625
     H     -0.25490000      1.72910000      1.08280000    0.0404   29.6988
     H     -3.79600000      2.66310000     -1.28740000    0.0140   21.4613
     H     -7.04570000      0.63100000     -0.81870000    0.0327   30.3405
     H     -3.73200000     -1.78860000     -1.78020000    0.0874   28.2111
