34
chgs=0 nmr=1 alpha=141.14 
     C     -1.91270000      0.47570000      1.51600000    0.2103   34.4468
     O     -1.83470000     -0.51030000      0.76680000   -0.2919 -105.9485
     N     -2.50100000      0.37410000      2.72560000   -0.2368  109.1712
     C     -3.06370000     -0.92600000      3.11590000    0.0748  126.8217
     C     -4.17810000     -1.39590000      2.16520000    0.1597   23.7709
     O     -4.36040000     -2.59610000      1.96420000   -0.2743  -62.5334
     C     -3.54840000     -0.67920000      4.55730000    0.0336  161.4795
     C     -3.88230000      0.82070000      4.57630000   -0.0277  164.0677
     C     -2.78870000      1.44460000      3.69700000    0.1173  146.2175
     N     -4.93360000     -0.42760000      1.58080000   -0.1492  153.4653
     C     -5.95950000     -0.75220000      0.59260000    0.1238  144.6614
     C     -5.44150000     -1.47950000     -0.66470000    0.1114   31.6947
     O     -6.22450000     -2.15670000     -1.31890000   -0.2692  -51.8884
     N     -4.14050000     -1.27530000     -1.02540000   -0.1780  144.8116
     C     -3.54700000     -2.02120000     -2.12210000    0.1276  149.6993
     C     -2.54580000     -3.08320000     -1.64360000    0.0371   28.3556
     O     -1.85310000     -3.71080000     -2.46200000   -0.2997  -50.4399
     N     -2.40610000     -3.22870000     -0.31420000   -0.0389  159.5249
     H     -2.29450000     -1.70630000      3.05990000    0.0202   27.2227
     H     -4.39500000     -1.32650000      4.82530000    0.0362   29.3951
     H     -2.72210000     -0.89730000      5.25360000    0.0280   29.4153
     H     -4.86980000      0.99170000      4.11760000    0.0216   29.4215
     H     -3.89940000      1.24920000      5.58850000    0.0260   29.4827
     H     -1.88090000      1.68360000      4.27730000    0.0398   27.9845
     H     -3.13200000      2.35020000      3.17990000    0.0275   27.8596
     H     -4.60560000      0.53540000      1.61300000    0.0912   26.3810
     H     -6.64650000     -1.48990000      1.03030000    0.0591   27.4283
     H     -3.49920000     -0.77170000     -0.41380000    0.0825   25.6150
     H     -4.37040000     -2.54620000     -2.62940000    0.0666   26.7113
     H     -3.05840000     -2.77050000      0.31520000    0.1004   25.7652
     H     -1.50900000      1.44310000      1.18240000    0.0049   22.9248
     H     -6.50330000      0.16910000      0.33670000    0.0420   28.3280
     H     -3.04350000     -1.36160000     -2.84420000    0.0390   28.6183
     H     -1.68320000     -3.77990000      0.10240000    0.0848   27.6653
