22
chgs=0 nmr=1 alpha=86.83 
     C     -5.95950000     -0.75220000      0.59260000    0.0835  135.9300
     C     -5.44150000     -1.47950000     -0.66470000    0.0959   29.4143
     O     -6.22450000     -2.15670000     -1.31890000   -0.2605  -66.6815
     C     -6.72760000      0.54920000      0.23110000   -0.0144  158.7768
     C     -7.17340000      0.66390000     -1.24020000    0.0606  158.7092
     C     -7.71910000      2.04180000     -1.51110000    0.1247   24.6570
     O     -6.70720000      2.98650000     -1.52750000   -0.2004  132.8679
     O     -8.86560000      2.36260000     -1.68260000   -0.2194  -90.8259
     N     -4.14050000     -1.27530000     -1.02540000   -0.0591  171.3243
     C     -4.17810000     -1.39590000      2.16520000    0.1946   37.6583
     O     -4.36040000     -2.59610000      1.96420000   -0.2654 -125.3820
     N     -4.93360000     -0.42760000      1.58080000   -0.1446  123.9311
     H     -6.64650000     -1.48990000      1.03030000    0.0458   27.2789
     H     -7.60780000      0.64120000      0.88650000    0.0408   29.0555
     H     -6.07680000      1.40620000      0.44970000    0.0088   30.3727
     H     -6.30940000      0.50900000     -1.90500000    0.0459   29.2747
     H     -7.93760000     -0.07880000     -1.49670000    0.0485   29.1020
     H     -7.13700000      3.84940000     -1.67810000    0.1520   26.5990
     H     -3.49920000     -0.77170000     -0.41380000    0.0861   26.5031
     H     -4.60560000      0.53540000      1.61300000    0.0886   27.3183
     H     -3.73200000     -1.78860000     -1.78020000    0.0997   27.6598
     H     -3.38120000     -1.05990000      2.84500000   -0.0119   23.1522
