13
chgs=0 nmr=1 alpha=62.96 
     C      2.08100000      0.19180000      3.00120000    0.0138   72.8843
     C      2.64120000     -0.80650000      2.18810000    0.0421   63.4588
     C      0.98480000     -0.15760000      3.80220000    0.0480   63.3130
     C      2.12680000     -2.09980000      2.16000000   -0.0008   80.6736
     C      0.45840000     -1.45210000      3.78880000    0.0385   79.5511
     C      1.01760000     -2.42980000      2.95410000    0.0487   36.6777
     O      0.45780000     -3.67340000      2.95140000   -0.1894  215.5864
     H      3.50920000     -0.57500000      1.56880000   -0.0307   24.4302
     H      0.53070000      0.59650000      4.45220000   -0.0271   24.2534
     H      2.57640000     -2.86320000      1.52270000   -0.0382   25.1752
     H     -0.38490000     -1.72720000      4.42550000   -0.0264   24.7057
     H      0.82970000     -4.18290000      2.20160000    0.1515   27.8548
     H      2.49250000      1.21150000      2.97110000   -0.0301   24.4421
