22
chgs=0 nmr=1 alpha=82.38 
     N      5.62010000      4.82020000     -0.78950000   -0.1841  236.0125
     C      5.13490000      4.75780000      0.58520000    0.0923  144.2265
     C      4.42820000      3.44170000      0.90960000    0.0516   19.9141
     O      4.96590000      2.35460000      0.66000000   -0.3013  -47.2658
     N      3.18890000      3.51260000      1.46050000   -0.0609  163.8314
     N      2.23970000      2.31020000     -2.25620000   -0.1649  152.7288
     C      1.75110000      3.61130000     -2.68940000    0.0972  147.6886
     C      1.57950000      4.49420000     -1.45790000    0.1480   -1.8976
     O      2.47210000      5.11220000     -0.91980000   -0.1785 -322.2515
     C      3.56570000      1.99100000     -2.32950000    0.2264   37.8280
     O      4.40780000      2.72380000     -2.83520000   -0.2706  -87.1639
     H      6.12690000      3.95360000     -0.98840000    0.0824   30.5583
     H      4.80970000      4.78470000     -1.41320000    0.0754   30.2804
     H      5.99190000      4.83530000      1.27870000    0.0338   28.6725
     H      4.47090000      5.61460000      0.77610000    0.0020   28.4891
     H      2.70330000      4.40390000      1.49810000    0.0932   27.3678
     H      1.62560000      1.68770000     -1.72520000    0.0912   27.0841
     H      2.50890000      4.05600000     -3.34560000    0.0659   26.5506
     H      0.79420000      3.49920000     -3.21900000    0.0259   28.4888
     H      2.62700000      2.69190000      1.56460000    0.0740   28.3459
     H      0.55720000      4.43690000     -1.05590000   -0.0145   21.5557
     H      3.85070000      1.03990000     -1.85600000    0.0154   23.3495
