29
chgs=0 nmr=1 alpha=125.0 
     C      2.08100000      0.19180000      3.00120000    0.0131   73.6659
     C      2.64120000     -0.80650000      2.18810000    0.0462   63.1553
     C      0.98480000     -0.15760000      3.80220000    0.0404   64.6953
     C      2.12680000     -2.09980000      2.16000000    0.0061   79.7828
     C      0.45840000     -1.45210000      3.78880000    0.0344   79.9197
     C      1.01760000     -2.42980000      2.95410000    0.0626   36.0147
     O      0.45780000     -3.67340000      2.95140000   -0.1914  215.8111
     C     -1.91270000      0.47570000      1.51600000    0.2145   37.5193
     O     -1.83470000     -0.51030000      0.76680000   -0.3034 -122.9359
     N     -2.50100000      0.37410000      2.72560000   -0.2542  125.9887
     C     -3.06370000     -0.92600000      3.11590000    0.1284  145.2988
     C     -3.54840000     -0.67920000      4.55730000   -0.0342  164.8581
     C     -3.88230000      0.82070000      4.57630000   -0.0272  162.9134
     C     -2.78870000      1.44460000      3.69700000    0.1272  146.5564
     H      3.50920000     -0.57500000      1.56880000   -0.0306   24.4419
     H      0.53070000      0.59650000      4.45220000   -0.0325   24.4344
     H      2.57640000     -2.86320000      1.52270000   -0.0368   25.1420
     H     -0.38490000     -1.72720000      4.42550000   -0.0268   24.8571
     H      0.82970000     -4.18290000      2.20160000    0.1539   27.7155
     H     -2.29450000     -1.70630000      3.05990000    0.0346   27.8581
     H     -4.39500000     -1.32650000      4.82530000    0.0122   29.5186
     H     -2.72210000     -0.89730000      5.25360000    0.0205   29.6141
     H     -4.86980000      0.99170000      4.11760000    0.0216   29.6295
     H     -3.89940000      1.24920000      5.58850000    0.0097   29.5354
     H     -1.88090000      1.68360000      4.27730000    0.0249   28.1512
     H     -3.13200000      2.35020000      3.17990000    0.0208   28.0684
     H      2.49250000      1.21150000      2.97110000   -0.0334   24.5366
     H     -1.50900000      1.44310000      1.18240000   -0.0203   23.4185
     H     -3.86060000     -1.26200000      2.43610000    0.0199   28.3579
