25
chgs=0 nmr=1 alpha=95.27 
     C      4.42820000      3.44170000      0.90960000    0.2199   33.8855
     O      4.96590000      2.35460000      0.66000000   -0.3061  -98.3557
     N      3.18890000      3.51260000      1.46050000   -0.1488  145.9736
     C      2.37390000      2.32220000      1.61150000    0.1427  149.2199
     C      0.90310000      2.70560000      1.48210000    0.0641   22.4905
     O      0.49730000      3.84920000      1.74780000   -0.3038  -38.0959
     N      2.23970000      2.31020000     -2.25620000   -0.1691  144.4216
     C      1.75110000      3.61130000     -2.68940000    0.1571  152.7404
     C      1.57950000      4.49420000     -1.45790000    0.1240   26.9285
     O      0.32590000      4.42390000     -0.96490000   -0.1903  124.2104
     O      2.47210000      5.11220000     -0.91980000   -0.2376  -79.1967
     N      0.09590000      1.69900000      1.09290000   -0.0429  162.7717
     C      3.56570000      1.99100000     -2.32950000    0.2182   38.5888
     O      4.40780000      2.72380000     -2.83520000   -0.2628  -95.5192
     H      2.70330000      4.40390000      1.49810000    0.0981   26.2691
     H      2.62670000      1.62560000      0.80080000    0.0163   27.6790
     H      1.62560000      1.68770000     -1.72520000    0.0741   27.5471
     H      2.50890000      4.05600000     -3.34560000    0.0620   26.5542
     H      0.79420000      3.49920000     -3.21900000    0.0293   28.5815
     H      0.33700000      4.72390000     -0.02600000    0.1680   24.7167
     H      0.50170000      0.84260000      0.71010000    0.1052   26.7590
     H      4.93670000      4.38870000      0.67620000    0.0111   23.2027
     H      2.56610000      1.80640000      2.56390000    0.0650   28.0486
     H     -0.90000000      1.78450000      1.06430000    0.1064   27.1908
     H      3.85070000      1.03990000     -1.85600000    0.0000   23.4388
